/work/05124/newman/stampede2/of2/work_here/re_20_mesh_2
Mon Apr  1 22:37:30 CDT 2019
/*---------------------------------------------------------------------------*\
  =========                 |
  \\      /  F ield         | OpenFOAM: The Open Source CFD Toolbox
   \\    /   O peration     | Website:  https://openfoam.org
    \\  /    A nd           | Version:  6.0
     \\/     M anipulation  |
\*---------------------------------------------------------------------------*/
Build  : 6.0
Exec   : blockMesh
Date   : Apr 01 2019
Time   : 22:37:33
Host   : "c419-052.stampede2.tacc.utexas.edu"
PID    : 263521
I/O    : uncollated
Case   : /work/05124/newman/stampede2/of2/work_here/re_20_mesh_2
nProcs : 1
sigFpe : Enabling floating point exception trapping (FOAM_SIGFPE).
fileModificationChecking : Monitoring run-time modified files using timeStampMaster (fileModificationSkew 10)
allowSystemOperations : Allowing user-supplied system call operations

// * * * * * * * * * * * * * * * * * * * * * * * * * * * * * * * * * * * * * //
Create time

Deleting polyMesh directory
    "/work/05124/newman/stampede2/of2/work_here/re_20_mesh_2/constant/polyMesh"
Creating block mesh from
    "/work/05124/newman/stampede2/of2/work_here/re_20_mesh_2/system/blockMeshDict"
Creating block edges
No non-planar block faces defined
Creating topology blocks
Creating topology patches

Creating block mesh topology
--> FOAM Warning : 
    From function Foam::polyMesh::polyMesh(const Foam::IOobject &, const Foam::Xfer<Foam::Field<Foam::Vector<double>>> &, const Foam::List<Foam::cellShape> &, const Foam::List<Foam::List<Foam::face>> &, const Foam::List<Foam::word> &, const Foam::PtrList<Foam::dictionary> &, const Foam::word &, const Foam::word &, bool)
    in file meshes/polyMesh/polyMeshFromShapeMesh.C at line 871
    Found 40 undefined faces in mesh; adding to default patch.

Check topology

	Basic statistics
		Number of internal faces : 28
		Number of boundary faces : 64
		Number of defined boundary faces : 64
		Number of undefined boundary faces : 0
	Checking patch -> block consistency

Creating block offsets
Creating merge list .

Creating polyMesh from blockMesh
Creating points with scale 1
    Block 0 cell size :
        i : 0.0166667 .. 0.0166667
        j : 0.0130896 .. 0.0130896
        k : 0.1 .. 0.1

    Block 1 cell size :
        i : 0.0166667 .. 0.0166667
        j : 0.0130896 .. 0.0130896
        k : 0.1 .. 0.1

    Block 2 cell size :
        i : 0.0166667 .. 0.0166667
        j : 0.0130896 .. 0.0130896
        k : 0.1 .. 0.1

    Block 3 cell size :
        i : 0.0166667 .. 0.0166667
        j : 0.0130896 .. 0.0130896
        k : 0.1 .. 0.1

    Block 4 cell size :
        i : 0.0166667 .. 0.0166667
        j : 0.0130896 .. 0.0130896
        k : 0.1 .. 0.1

    Block 5 cell size :
        i : 0.0166667 .. 0.0166667
        j : 0.0130896 .. 0.0130896
        k : 0.1 .. 0.1

    Block 6 cell size :
        i : 0.0166667 .. 0.0166667
        j : 0.0130896 .. 0.0130896
        k : 0.1 .. 0.1

    Block 7 cell size :
        i : 0.0166667 .. 0.0166667
        j : 0.0130896 .. 0.0130896
        k : 0.1 .. 0.1

    Block 8 cell size :
        i : 0.366667 .. 0.366667
        j : 0.0261792 .. 0.0261792
        k : 0.1 .. 0.1

    Block 9 cell size :
        i : 0.37643 .. 0.37643
        j : 0.17643 .. 0.17643
        k : 0.1 .. 0.1

    Block 10 cell size :
        i : 0.0261792 .. 0.0261792
        j : 0.166667 .. 0.166667
        k : 0.1 .. 0.1

    Block 11 cell size :
        i : 0.0261792 .. 0.0261792
        j : 0.17643 .. 0.17643
        k : 0.1 .. 0.1

    Block 12 cell size :
        i : 0.0764298 .. 0.0764298
        j : 0.17643 .. 0.17643
        k : 0.1 .. 0.1

    Block 13 cell size :
        i : 0.0666667 .. 0.0666667
        j : 0.0235702 .. 0.0235702
        k : 0.1 .. 0.1

    Block 14 cell size :
        i : 0.0764298 .. 0.0764298
        j : 0.0235702 .. 0.0235702
        k : 0.1 .. 0.1

    Block 15 cell size :
        i : 0.0764298 .. 0.0764298
        j : 0.17643 .. 0.17643
        k : 0.1 .. 0.1

    Block 16 cell size :
        i : 0.0235702 .. 0.0235702
        j : 0.17643 .. 0.17643
        k : 0.1 .. 0.1

    Block 17 cell size :
        i : 0.0235702 .. 0.0235702
        j : 0.166667 .. 0.166667
        k : 0.1 .. 0.1

    Block 18 cell size :
        i : 0.37643 .. 0.37643
        j : 0.17643 .. 0.17643
        k : 0.1 .. 0.1

    Block 19 cell size :
        i : 0.37643 .. 0.37643
        j : 0.0261792 .. 0.0261792
        k : 0.1 .. 0.1

Creating cells
Creating patches

Writing polyMesh
----------------
Mesh Information
----------------
  boundingBox: (-3 -6 -0.05) (12 6 0.05)
  nPoints: 36720
  nCells: 18000
  nFaces: 72360
  nInternalFaces: 35640
----------------
Patches
----------------
  patch 0 (start: 35640 size: 120) name: inlet
  patch 1 (start: 35760 size: 120) name: outlet
  patch 2 (start: 35880 size: 240) name: cylinder
  patch 3 (start: 36120 size: 120) name: top
  patch 4 (start: 36240 size: 120) name: bottom
  patch 5 (start: 36360 size: 36000) name: defaultFaces

End

/*---------------------------------------------------------------------------*\
  =========                 |
  \\      /  F ield         | OpenFOAM: The Open Source CFD Toolbox
   \\    /   O peration     | Website:  https://openfoam.org
    \\  /    A nd           | Version:  6.0
     \\/     M anipulation  |
\*---------------------------------------------------------------------------*/
Build  : 6.0
Exec   : checkMesh
Date   : Apr 01 2019
Time   : 22:37:35
Host   : "c419-052.stampede2.tacc.utexas.edu"
PID    : 263530
I/O    : uncollated
Case   : /work/05124/newman/stampede2/of2/work_here/re_20_mesh_2
nProcs : 1
sigFpe : Enabling floating point exception trapping (FOAM_SIGFPE).
fileModificationChecking : Monitoring run-time modified files using timeStampMaster (fileModificationSkew 10)
allowSystemOperations : Allowing user-supplied system call operations

// * * * * * * * * * * * * * * * * * * * * * * * * * * * * * * * * * * * * * //
Create time

Create polyMesh for time = 0

Time = 0

Mesh stats
    points:           36720
    internal points:  0
    faces:            72360
    internal faces:   35640
    cells:            18000
    faces per cell:   6
    boundary patches: 6
    point zones:      0
    face zones:       0
    cell zones:       0

Overall number of cells of each type:
    hexahedra:     18000
    prisms:        0
    wedges:        0
    pyramids:      0
    tet wedges:    0
    tetrahedra:    0
    polyhedra:     0

Checking topology...
    Boundary definition OK.
    Cell to face addressing OK.
    Point usage OK.
    Upper triangular ordering OK.
    Face vertices OK.
    Number of regions: 1 (OK).

Checking patch topology for multiply connected surfaces...
    Patch               Faces    Points   Surface topology                  
    inlet               120      242      ok (non-closed singly connected)  
    outlet              120      242      ok (non-closed singly connected)  
    cylinder            240      480      ok (non-closed singly connected)  
    top                 120      242      ok (non-closed singly connected)  
    bottom              120      242      ok (non-closed singly connected)  
    defaultFaces        36000    36720    ok (non-closed singly connected)  

Checking geometry...
    Overall domain bounding box (-3 -6 -0.05) (12 6 0.05)
    Mesh has 2 geometric (non-empty/wedge) directions (1 1 0)
    Mesh has 2 solution (non-empty) directions (1 1 0)
    All edges aligned with or perpendicular to non-empty directions.
    Boundary openness (-5.35933e-21 -6.44072e-18 2.11753e-17) OK.
    Max cell openness = 2.46977e-16 OK.
    Max aspect ratio = 20.8371 OK.
    Minimum face area = 0.000221777. Maximum face area = 0.0664134.  Face area magnitudes OK.
    Min volume = 2.21777e-05. Max volume = 0.00664134.  Total volume = 17.9215.  Cell volumes OK.
    Mesh non-orthogonality Max: 43.0964 average: 9.82563
    Non-orthogonality check OK.
    Face pyramids OK.
    Max skewness = 0.474606 OK.
    Coupled point location match (average 0) OK.

Mesh OK.

End

/*---------------------------------------------------------------------------*\
  =========                 |
  \\      /  F ield         | OpenFOAM: The Open Source CFD Toolbox
   \\    /   O peration     | Website:  https://openfoam.org
    \\  /    A nd           | Version:  6.0
     \\/     M anipulation  |
\*---------------------------------------------------------------------------*/
Build  : 6.0
Exec   : icoFoam
Date   : Apr 01 2019
Time   : 22:37:39
Host   : "c419-052.stampede2.tacc.utexas.edu"
PID    : 263589
I/O    : uncollated
Case   : /work/05124/newman/stampede2/of2/work_here/re_20_mesh_2
nProcs : 1
sigFpe : Enabling floating point exception trapping (FOAM_SIGFPE).
fileModificationChecking : Monitoring run-time modified files using timeStampMaster (fileModificationSkew 10)
allowSystemOperations : Allowing user-supplied system call operations

// * * * * * * * * * * * * * * * * * * * * * * * * * * * * * * * * * * * * * //
Create time

Create mesh for time = 0

Reading transportProperties

Reading field p

Reading field U

Reading/calculating face flux field phi


Starting time loop

