/work/05124/newman/stampede2/of2/circular-cylinder/mesh_a_25_sec
Mon Apr  1 21:58:42 CDT 2019
/*---------------------------------------------------------------------------*\
  =========                 |
  \\      /  F ield         | OpenFOAM: The Open Source CFD Toolbox
   \\    /   O peration     | Website:  https://openfoam.org
    \\  /    A nd           | Version:  6.0
     \\/     M anipulation  |
\*---------------------------------------------------------------------------*/
Build  : 6.0
Exec   : blockMesh
Date   : Apr 01 2019
Time   : 21:58:46
Host   : "c401-002.stampede2.tacc.utexas.edu"
PID    : 68200
I/O    : uncollated
Case   : /work/05124/newman/stampede2/of2/circular-cylinder/mesh_a_25_sec
nProcs : 1
sigFpe : Enabling floating point exception trapping (FOAM_SIGFPE).
fileModificationChecking : Monitoring run-time modified files using timeStampMaster (fileModificationSkew 10)
allowSystemOperations : Allowing user-supplied system call operations

// * * * * * * * * * * * * * * * * * * * * * * * * * * * * * * * * * * * * * //
Create time

Deleting polyMesh directory
    "/work/05124/newman/stampede2/of2/circular-cylinder/mesh_a_25_sec/constant/polyMesh"
Creating block mesh from
    "/work/05124/newman/stampede2/of2/circular-cylinder/mesh_a_25_sec/system/blockMeshDict"
Creating block edges
No non-planar block faces defined
Creating topology blocks
Creating topology patches

Creating block mesh topology
--> FOAM Warning : 
    From function Foam::polyMesh::polyMesh(const Foam::IOobject &, const Foam::Xfer<Foam::Field<Foam::Vector<double>>> &, const Foam::List<Foam::cellShape> &, const Foam::List<Foam::List<Foam::face>> &, const Foam::List<Foam::word> &, const Foam::PtrList<Foam::dictionary> &, const Foam::word &, const Foam::word &, bool)
    in file meshes/polyMesh/polyMeshFromShapeMesh.C at line 871
    Found 40 undefined faces in mesh; adding to default patch.

Check topology

	Basic statistics
		Number of internal faces : 28
		Number of boundary faces : 64
		Number of defined boundary faces : 64
		Number of undefined boundary faces : 0
	Checking patch -> block consistency

Creating block offsets
Creating merge list .

Creating polyMesh from blockMesh
Creating points with scale 1
    Block 0 cell size :
        i : 0.05 .. 0.05
        j : 0.0392598 .. 0.0392598
        k : 0.1 .. 0.1

    Block 1 cell size :
        i : 0.0500001 .. 0.0500001
        j : 0.0392598 .. 0.0392598
        k : 0.1 .. 0.1

    Block 2 cell size :
        i : 0.05 .. 0.05
        j : 0.0392598 .. 0.0392598
        k : 0.1 .. 0.1

    Block 3 cell size :
        i : 0.0500001 .. 0.0500001
        j : 0.0392598 .. 0.0392598
        k : 0.1 .. 0.1

    Block 4 cell size :
        i : 0.05 .. 0.05
        j : 0.0392598 .. 0.0392598
        k : 0.1 .. 0.1

    Block 5 cell size :
        i : 0.0500001 .. 0.0500001
        j : 0.0392598 .. 0.0392598
        k : 0.1 .. 0.1

    Block 6 cell size :
        i : 0.05 .. 0.05
        j : 0.0392598 .. 0.0392598
        k : 0.1 .. 0.1

    Block 7 cell size :
        i : 0.0500001 .. 0.0500001
        j : 0.0392598 .. 0.0392598
        k : 0.1 .. 0.1

    Block 8 cell size :
        i : 0.9 .. 0.9
        j : 0.0785196 .. 0.0785196
        k : 0.1 .. 0.1

    Block 9 cell size :
        i : 0.929289 .. 0.929289
        j : 0.429289 .. 0.429289
        k : 0.1 .. 0.1

    Block 10 cell size :
        i : 0.0785196 .. 0.0785196
        j : 0.4 .. 0.4
        k : 0.1 .. 0.1

    Block 11 cell size :
        i : 0.0785196 .. 0.0785196
        j : 0.429289 .. 0.429289
        k : 0.1 .. 0.1

    Block 12 cell size :
        i : 0.129289 .. 0.129289
        j : 0.429289 .. 0.429289
        k : 0.1 .. 0.1

    Block 13 cell size :
        i : 0.1 .. 0.1
        j : 0.0707107 .. 0.0707107
        k : 0.1 .. 0.1

    Block 14 cell size :
        i : 0.129289 .. 0.129289
        j : 0.0707107 .. 0.0707107
        k : 0.1 .. 0.1

    Block 15 cell size :
        i : 0.129289 .. 0.129289
        j : 0.429289 .. 0.429289
        k : 0.1 .. 0.1

    Block 16 cell size :
        i : 0.0707107 .. 0.0707107
        j : 0.429289 .. 0.429289
        k : 0.1 .. 0.1

    Block 17 cell size :
        i : 0.0707107 .. 0.0707107
        j : 0.4 .. 0.4
        k : 0.1 .. 0.1

    Block 18 cell size :
        i : 0.929289 .. 0.929289
        j : 0.429289 .. 0.429289
        k : 0.1 .. 0.1

    Block 19 cell size :
        i : 0.929289 .. 0.929289
        j : 0.0785196 .. 0.0785196
        k : 0.1 .. 0.1

Creating cells
Creating patches

Writing polyMesh
----------------
Mesh Information
----------------
  boundingBox: (-2 -5 -0.05) (10 5 0.05)
  nPoints: 4240
  nCells: 2000
  nFaces: 8120
  nInternalFaces: 3880
----------------
Patches
----------------
  patch 0 (start: 3880 size: 40) name: inlet
  patch 1 (start: 3920 size: 40) name: outlet
  patch 2 (start: 3960 size: 80) name: cylinder
  patch 3 (start: 4040 size: 40) name: top
  patch 4 (start: 4080 size: 40) name: bottom
  patch 5 (start: 4120 size: 4000) name: defaultFaces

End

/*---------------------------------------------------------------------------*\
  =========                 |
  \\      /  F ield         | OpenFOAM: The Open Source CFD Toolbox
   \\    /   O peration     | Website:  https://openfoam.org
    \\  /    A nd           | Version:  6.0
     \\/     M anipulation  |
\*---------------------------------------------------------------------------*/
Build  : 6.0
Exec   : checkMesh
Date   : Apr 01 2019
Time   : 21:58:48
Host   : "c401-002.stampede2.tacc.utexas.edu"
PID    : 68209
I/O    : uncollated
Case   : /work/05124/newman/stampede2/of2/circular-cylinder/mesh_a_25_sec
nProcs : 1
sigFpe : Enabling floating point exception trapping (FOAM_SIGFPE).
fileModificationChecking : Monitoring run-time modified files using timeStampMaster (fileModificationSkew 10)
allowSystemOperations : Allowing user-supplied system call operations

// * * * * * * * * * * * * * * * * * * * * * * * * * * * * * * * * * * * * * //
Create time

Create polyMesh for time = 0

Time = 0

Mesh stats
    points:           4240
    internal points:  0
    faces:            8120
    internal faces:   3880
    cells:            2000
    faces per cell:   6
    boundary patches: 6
    point zones:      0
    face zones:       0
    cell zones:       0

Overall number of cells of each type:
    hexahedra:     2000
    prisms:        0
    wedges:        0
    pyramids:      0
    tet wedges:    0
    tetrahedra:    0
    polyhedra:     0

Checking topology...
    Boundary definition OK.
    Cell to face addressing OK.
    Point usage OK.
    Upper triangular ordering OK.
    Face vertices OK.
    Number of regions: 1 (OK).

Checking patch topology for multiply connected surfaces...
    Patch               Faces    Points   Surface topology                  
    inlet               40       82       ok (non-closed singly connected)  
    outlet              40       82       ok (non-closed singly connected)  
    cylinder            80       160      ok (non-closed singly connected)  
    top                 40       82       ok (non-closed singly connected)  
    bottom              40       82       ok (non-closed singly connected)  
    defaultFaces        4000     4240     ok (non-closed singly connected)  

Checking geometry...
    Overall domain bounding box (-2 -5 -0.05) (10 5 0.05)
    Mesh has 2 geometric (non-empty/wedge) directions (1 1 0)
    Mesh has 2 solution (non-empty) directions (1 1 0)
    All edges aligned with or perpendicular to non-empty directions.
    Boundary openness (2.92516e-19 1.14152e-18 -2.31102e-16) OK.
    Max cell openness = 1.91541e-16 OK.
    Max aspect ratio = 16.5738 OK.
    Minimum face area = 0.00205955. Maximum face area = 0.398934.  Face area magnitudes OK.
    Min volume = 0.000205955. Max volume = 0.0398934.  Total volume = 11.9215.  Cell volumes OK.
    Mesh non-orthogonality Max: 40.7921 average: 9.87882
    Non-orthogonality check OK.
    Face pyramids OK.
    Max skewness = 0.425688 OK.
    Coupled point location match (average 0) OK.

Mesh OK.

End

/*---------------------------------------------------------------------------*\
  =========                 |
  \\      /  F ield         | OpenFOAM: The Open Source CFD Toolbox
   \\    /   O peration     | Website:  https://openfoam.org
    \\  /    A nd           | Version:  6.0
     \\/     M anipulation  |
\*---------------------------------------------------------------------------*/
Build  : 6.0
Exec   : icoFoam
Date   : Apr 01 2019
Time   : 21:58:49
Host   : "c401-002.stampede2.tacc.utexas.edu"
PID    : 68367
I/O    : uncollated
Case   : /work/05124/newman/stampede2/of2/circular-cylinder/mesh_a_25_sec
nProcs : 1
sigFpe : Enabling floating point exception trapping (FOAM_SIGFPE).
fileModificationChecking : Monitoring run-time modified files using timeStampMaster (fileModificationSkew 10)
allowSystemOperations : Allowing user-supplied system call operations

// * * * * * * * * * * * * * * * * * * * * * * * * * * * * * * * * * * * * * //
Create time

Create mesh for time = 0

Reading transportProperties

Reading field p

Reading field U

Reading/calculating face flux field phi


Starting time loop

Reading set description:
    simple_line

Time = 0.01

Courant Number mean: 0.0356567 max: 0.29851
smoothSolver:  Solving for Ux, Initial residual = 1, Final residual = 1.61666e-06, No Iterations 5
smoothSolver:  Solving for Uy, Initial residual = 0, Final residual = 0, No Iterations 0
DICPCG:  Solving for p, Initial residual = 1, Final residual = 0.0485214, No Iterations 48
time step continuity errors : sum local = 8.36674e-06, global = -4.00014e-07, cumulative = -4.00014e-07
DICPCG:  Solving for p, Initial residual = 0.171979, Final residual = 8.8657e-07, No Iterations 82
time step continuity errors : sum local = 6.51183e-10, global = -3.68336e-12, cumulative = -4.00018e-07
ExecutionTime = 0.38 s  ClockTime = 1 s

Time = 0.02

Courant Number mean: 0.0366919 max: 0.3839
smoothSolver:  Solving for Ux, Initial residual = 0.329389, Final residual = 1.80065e-06, No Iterations 4
smoothSolver:  Solving for Uy, Initial residual = 0.329535, Final residual = 1.6786e-06, No Iterations 4
DICPCG:  Solving for p, Initial residual = 0.299424, Final residual = 0.0128268, No Iterations 50
time step continuity errors : sum local = 7.92496e-06, global = 3.913e-07, cumulative = -8.71835e-09
DICPCG:  Solving for p, Initial residual = 0.583905, Final residual = 7.71211e-07, No Iterations 85
time step continuity errors : sum local = 1.61787e-10, global = -2.36182e-12, cumulative = -8.72071e-09
ExecutionTime = 0.42 s  ClockTime = 1 s

Time = 0.03

Courant Number mean: 0.0366744 max: 0.378087
smoothSolver:  Solving for Ux, Initial residual = 0.018568, Final residual = 2.55503e-06, No Iterations 3
smoothSolver:  Solving for Uy, Initial residual = 0.0157583, Final residual = 1.0119e-06, No Iterations 3
DICPCG:  Solving for p, Initial residual = 0.21604, Final residual = 0.00898339, No Iterations 36
time step continuity errors : sum local = 5.51266e-07, global = 1.95812e-09, cumulative = -6.76259e-09
DICPCG:  Solving for p, Initial residual = 0.0425097, Final residual = 8.41463e-07, No Iterations 73
time step continuity errors : sum local = 6.28028e-11, global = -6.692e-13, cumulative = -6.76326e-09
ExecutionTime = 0.45 s  ClockTime = 1 s

Time = 0.04

Courant Number mean: 0.0366482 max: 0.360422
smoothSolver:  Solving for Ux, Initial residual = 0.0174894, Final residual = 1.72756e-06, No Iterations 3
smoothSolver:  Solving for Uy, Initial residual = 0.0206931, Final residual = 8.07413e-07, No Iterations 3
DICPCG:  Solving for p, Initial residual = 0.093428, Final residual = 0.00451226, No Iterations 19
time step continuity errors : sum local = 3.0513e-07, global = 8.67655e-08, cumulative = 8.00023e-08
DICPCG:  Solving for p, Initial residual = 0.0266902, Final residual = 9.4348e-07, No Iterations 75
time step continuity errors : sum local = 5.95346e-11, global = 8.2967e-13, cumulative = 8.00031e-08
ExecutionTime = 0.48 s  ClockTime = 1 s

Time = 0.05

Courant Number mean: 0.0366275 max: 0.347381
smoothSolver:  Solving for Ux, Initial residual = 0.0120932, Final residual = 1.24379e-06, No Iterations 3
smoothSolver:  Solving for Uy, Initial residual = 0.0172174, Final residual = 7.3994e-07, No Iterations 3
DICPCG:  Solving for p, Initial residual = 0.0768256, Final residual = 0.003839, No Iterations 18
time step continuity errors : sum local = 2.19287e-07, global = 5.49169e-08, cumulative = 1.3492e-07
DICPCG:  Solving for p, Initial residual = 0.0215967, Final residual = 6.93895e-07, No Iterations 75
time step continuity errors : sum local = 3.76556e-11, global = 4.99321e-13, cumulative = 1.34921e-07
ExecutionTime = 0.52 s  ClockTime = 1 s

Time = 0.06

Courant Number mean: 0.0366105 max: 0.342588
smoothSolver:  Solving for Ux, Initial residual = 0.00908781, Final residual = 9.65637e-07, No Iterations 3
smoothSolver:  Solving for Uy, Initial residual = 0.0147418, Final residual = 6.87177e-07, No Iterations 3
DICPCG:  Solving for p, Initial residual = 0.0656509, Final residual = 0.00313706, No Iterations 19
time step continuity errors : sum local = 1.57195e-07, global = 4.44174e-08, cumulative = 1.79338e-07
DICPCG:  Solving for p, Initial residual = 0.0183548, Final residual = 9.05421e-07, No Iterations 74
time step continuity errors : sum local = 4.34432e-11, global = 9.54683e-13, cumulative = 1.79339e-07
ExecutionTime = 0.55 s  ClockTime = 1 s

Time = 0.07

Courant Number mean: 0.0365959 max: 0.336943
smoothSolver:  Solving for Ux, Initial residual = 0.00718664, Final residual = 7.86691e-07, No Iterations 3
smoothSolver:  Solving for Uy, Initial residual = 0.012878, Final residual = 6.41624e-07, No Iterations 3
DICPCG:  Solving for p, Initial residual = 0.0568953, Final residual = 0.00277263, No Iterations 19
time step continuity errors : sum local = 1.24064e-07, global = 3.60927e-08, cumulative = 2.15432e-07
DICPCG:  Solving for p, Initial residual = 0.0159083, Final residual = 7.63278e-07, No Iterations 74
time step continuity errors : sum local = 3.28995e-11, global = 7.98815e-13, cumulative = 2.15432e-07
ExecutionTime = 0.57 s  ClockTime = 1 s

Time = 0.08

Courant Number mean: 0.0365833 max: 0.330816
smoothSolver:  Solving for Ux, Initial residual = 0.0059133, Final residual = 9.79513e-06, No Iterations 2
smoothSolver:  Solving for Uy, Initial residual = 0.0114462, Final residual = 9.76381e-06, No Iterations 2
DICPCG:  Solving for p, Initial residual = 0.0501136, Final residual = 0.00249197, No Iterations 19
time step continuity errors : sum local = 1.01439e-07, global = 3.00726e-08, cumulative = 2.45505e-07
DICPCG:  Solving for p, Initial residual = 0.0138387, Final residual = 9.48408e-07, No Iterations 73
time step continuity errors : sum local = 3.75222e-11, global = 1.00063e-12, cumulative = 2.45506e-07
ExecutionTime = 0.6 s  ClockTime = 1 s

Time = 0.09

Courant Number mean: 0.036572 max: 0.324537
smoothSolver:  Solving for Ux, Initial residual = 0.00500056, Final residual = 8.43125e-06, No Iterations 2
smoothSolver:  Solving for Uy, Initial residual = 0.0103734, Final residual = 9.02369e-06, No Iterations 2
DICPCG:  Solving for p, Initial residual = 0.0447391, Final residual = 0.00221819, No Iterations 19
time step continuity errors : sum local = 8.346e-08, global = 2.49732e-08, cumulative = 2.70479e-07
DICPCG:  Solving for p, Initial residual = 0.0123093, Final residual = 8.09268e-07, No Iterations 73
time step continuity errors : sum local = 2.97307e-11, global = 7.64332e-13, cumulative = 2.7048e-07
ExecutionTime = 0.63 s  ClockTime = 1 s

Time = 0.1

Courant Number mean: 0.0365618 max: 0.31852
smoothSolver:  Solving for Ux, Initial residual = 0.00432031, Final residual = 7.39041e-06, No Iterations 2
smoothSolver:  Solving for Uy, Initial residual = 0.00954555, Final residual = 8.36986e-06, No Iterations 2
DICPCG:  Solving for p, Initial residual = 0.0404191, Final residual = 0.00200182, No Iterations 19
time step continuity errors : sum local = 7.03876e-08, global = 2.10336e-08, cumulative = 2.91514e-07
DICPCG:  Solving for p, Initial residual = 0.0110394, Final residual = 9.62205e-07, No Iterations 72
time step continuity errors : sum local = 3.31496e-11, global = 1.78289e-13, cumulative = 2.91514e-07
ExecutionTime = 0.66 s  ClockTime = 1 s

Time = 0.11

Courant Number mean: 0.0365525 max: 0.313281
smoothSolver:  Solving for Ux, Initial residual = 0.00379938, Final residual = 6.56172e-06, No Iterations 2
smoothSolver:  Solving for Uy, Initial residual = 0.0089031, Final residual = 7.82292e-06, No Iterations 2
DICPCG:  Solving for p, Initial residual = 0.0366768, Final residual = 0.00181042, No Iterations 19
time step continuity errors : sum local = 6.00392e-08, global = 1.78603e-08, cumulative = 3.09374e-07
DICPCG:  Solving for p, Initial residual = 0.00994721, Final residual = 8.38647e-07, No Iterations 72
time step continuity errors : sum local = 2.73379e-11, global = 8.06362e-14, cumulative = 3.09374e-07
ExecutionTime = 0.69 s  ClockTime = 1 s

Time = 0.12

Courant Number mean: 0.036544 max: 0.31101
smoothSolver:  Solving for Ux, Initial residual = 0.00339359, Final residual = 5.88705e-06, No Iterations 2
smoothSolver:  Solving for Uy, Initial residual = 0.00839277, Final residual = 7.34824e-06, No Iterations 2
DICPCG:  Solving for p, Initial residual = 0.0333436, Final residual = 0.00163687, No Iterations 19
time step continuity errors : sum local = 5.16299e-08, global = 1.52843e-08, cumulative = 3.24658e-07
DICPCG:  Solving for p, Initial residual = 0.00899446, Final residual = 9.7532e-07, No Iterations 71
time step continuity errors : sum local = 3.03243e-11, global = -4.149e-13, cumulative = 3.24658e-07
ExecutionTime = 0.72 s  ClockTime = 1 s

Time = 0.13

Courant Number mean: 0.0365361 max: 0.308564
smoothSolver:  Solving for Ux, Initial residual = 0.00306444, Final residual = 5.33006e-06, No Iterations 2
smoothSolver:  Solving for Uy, Initial residual = 0.00796133, Final residual = 6.92453e-06, No Iterations 2
DICPCG:  Solving for p, Initial residual = 0.0303428, Final residual = 0.00147839, No Iterations 19
time step continuity errors : sum local = 4.46717e-08, global = 1.31722e-08, cumulative = 3.3783e-07
DICPCG:  Solving for p, Initial residual = 0.00815712, Final residual = 8.80772e-07, No Iterations 71
time step continuity errors : sum local = 2.6296e-11, global = -4.09483e-13, cumulative = 3.3783e-07
ExecutionTime = 0.75 s  ClockTime = 1 s

Time = 0.14

Courant Number mean: 0.0365288 max: 0.305998
smoothSolver:  Solving for Ux, Initial residual = 0.00279368, Final residual = 4.86506e-06, No Iterations 2
smoothSolver:  Solving for Uy, Initial residual = 0.00757715, Final residual = 6.54257e-06, No Iterations 2
DICPCG:  Solving for p, Initial residual = 0.0276376, Final residual = 0.00133833, No Iterations 19
time step continuity errors : sum local = 3.89564e-08, global = 1.14261e-08, cumulative = 3.49256e-07
DICPCG:  Solving for p, Initial residual = 0.00745281, Final residual = 7.93037e-07, No Iterations 71
time step continuity errors : sum local = 2.28446e-11, global = -3.9255e-13, cumulative = 3.49255e-07
ExecutionTime = 0.78 s  ClockTime = 1 s

Time = 0.15

Courant Number mean: 0.0365218 max: 0.303359
smoothSolver:  Solving for Ux, Initial residual = 0.00256742, Final residual = 4.47012e-06, No Iterations 2
smoothSolver:  Solving for Uy, Initial residual = 0.00724011, Final residual = 6.20301e-06, No Iterations 2
DICPCG:  Solving for p, Initial residual = 0.0252152, Final residual = 0.00121602, No Iterations 19
time step continuity errors : sum local = 3.42391e-08, global = 9.97196e-09, cumulative = 3.59227e-07
DICPCG:  Solving for p, Initial residual = 0.00688775, Final residual = 9.52603e-07, No Iterations 70
time step continuity errors : sum local = 2.65725e-11, global = -5.27106e-13, cumulative = 3.59227e-07
ExecutionTime = 0.81 s  ClockTime = 1 s

Time = 0.16

Courant Number mean: 0.0365153 max: 0.300681
smoothSolver:  Solving for Ux, Initial residual = 0.00237662, Final residual = 4.12715e-06, No Iterations 2
smoothSolver:  Solving for Uy, Initial residual = 0.00694467, Final residual = 5.89917e-06, No Iterations 2
DICPCG:  Solving for p, Initial residual = 0.0231925, Final residual = 0.00110757, No Iterations 19
time step continuity errors : sum local = 3.02674e-08, global = 8.75348e-09, cumulative = 3.6798e-07
DICPCG:  Solving for p, Initial residual = 0.00641858, Final residual = 9.32022e-07, No Iterations 69
time step continuity errors : sum local = 2.52555e-11, global = -2.85454e-13, cumulative = 3.6798e-07
ExecutionTime = 0.84 s  ClockTime = 1 s

Time = 0.17

Courant Number mean: 0.0365092 max: 0.297994
smoothSolver:  Solving for Ux, Initial residual = 0.00221584, Final residual = 3.8259e-06, No Iterations 2
smoothSolver:  Solving for Uy, Initial residual = 0.00668425, Final residual = 5.62862e-06, No Iterations 2
DICPCG:  Solving for p, Initial residual = 0.021464, Final residual = 0.00101101, No Iterations 19
time step continuity errors : sum local = 2.68939e-08, global = 7.72619e-09, cumulative = 3.75706e-07
DICPCG:  Solving for p, Initial residual = 0.00601497, Final residual = 9.12444e-07, No Iterations 68
time step continuity errors : sum local = 2.40896e-11, global = -3.23271e-14, cumulative = 3.75706e-07
ExecutionTime = 0.87 s  ClockTime = 2 s

Time = 0.18

Courant Number mean: 0.0365033 max: 0.295318
smoothSolver:  Solving for Ux, Initial residual = 0.00207761, Final residual = 3.56004e-06, No Iterations 2
smoothSolver:  Solving for Uy, Initial residual = 0.00645552, Final residual = 5.38286e-06, No Iterations 2
DICPCG:  Solving for p, Initial residual = 0.0199531, Final residual = 0.000924495, No Iterations 19
time step continuity errors : sum local = 2.4e-08, global = 6.85504e-09, cumulative = 3.82561e-07
DICPCG:  Solving for p, Initial residual = 0.00566026, Final residual = 7.91849e-07, No Iterations 68
time step continuity errors : sum local = 2.0413e-11, global = -5.83015e-14, cumulative = 3.82561e-07
ExecutionTime = 0.9 s  ClockTime = 2 s

Time = 0.19

Courant Number mean: 0.0364978 max: 0.292817
smoothSolver:  Solving for Ux, Initial residual = 0.00195662, Final residual = 3.32386e-06, No Iterations 2
smoothSolver:  Solving for Uy, Initial residual = 0.00624451, Final residual = 5.15549e-06, No Iterations 2
DICPCG:  Solving for p, Initial residual = 0.0186191, Final residual = 0.000845911, No Iterations 19
time step continuity errors : sum local = 2.14815e-08, global = 6.11221e-09, cumulative = 3.88673e-07
DICPCG:  Solving for p, Initial residual = 0.00533703, Final residual = 9.58492e-07, No Iterations 67
time step continuity errors : sum local = 2.41864e-11, global = 8.98186e-15, cumulative = 3.88673e-07
ExecutionTime = 0.92 s  ClockTime = 2 s

Time = 0.2

Courant Number mean: 0.0364927 max: 0.290453
smoothSolver:  Solving for Ux, Initial residual = 0.00184986, Final residual = 3.11383e-06, No Iterations 2
smoothSolver:  Solving for Uy, Initial residual = 0.0060519, Final residual = 4.94674e-06, No Iterations 2
DICPCG:  Solving for p, Initial residual = 0.0174165, Final residual = 0.000862352, No Iterations 18
time step continuity errors : sum local = 2.14678e-08, global = 5.68591e-09, cumulative = 3.94359e-07
DICPCG:  Solving for p, Initial residual = 0.00507686, Final residual = 8.17388e-07, No Iterations 67
time step continuity errors : sum local = 2.02378e-11, global = -1.07004e-13, cumulative = 3.94359e-07
ExecutionTime = 0.96 s  ClockTime = 2 s

Time = 0.21

Courant Number mean: 0.0364878 max: 0.288202
smoothSolver:  Solving for Ux, Initial residual = 0.00175538, Final residual = 2.92701e-06, No Iterations 2
smoothSolver:  Solving for Uy, Initial residual = 0.00587378, Final residual = 4.75228e-06, No Iterations 2
DICPCG:  Solving for p, Initial residual = 0.0163297, Final residual = 0.000795889, No Iterations 18
time step continuity errors : sum local = 1.94591e-08, global = 5.11276e-09, cumulative = 3.99472e-07
DICPCG:  Solving for p, Initial residual = 0.00481987, Final residual = 7.36996e-07, No Iterations 67
time step continuity errors : sum local = 1.79272e-11, global = -9.1785e-14, cumulative = 3.99472e-07
ExecutionTime = 0.99 s  ClockTime = 2 s

Time = 0.22

Courant Number mean: 0.0364832 max: 0.286921
smoothSolver:  Solving for Ux, Initial residual = 0.00167142, Final residual = 2.75915e-06, No Iterations 2
smoothSolver:  Solving for Uy, Initial residual = 0.00570875, Final residual = 4.57299e-06, No Iterations 2
DICPCG:  Solving for p, Initial residual = 0.0154034, Final residual = 0.00073823, No Iterations 18
time step continuity errors : sum local = 1.77477e-08, global = 4.61583e-09, cumulative = 4.04088e-07
DICPCG:  Solving for p, Initial residual = 0.00458452, Final residual = 9.84381e-07, No Iterations 66
time step continuity errors : sum local = 2.35501e-11, global = -1.33665e-13, cumulative = 4.04088e-07
ExecutionTime = 1.01 s  ClockTime = 2 s

Time = 0.23

Courant Number mean: 0.0364788 max: 0.285798
smoothSolver:  Solving for Ux, Initial residual = 0.00159639, Final residual = 2.60648e-06, No Iterations 2
smoothSolver:  Solving for Uy, Initial residual = 0.00555647, Final residual = 4.40884e-06, No Iterations 2
DICPCG:  Solving for p, Initial residual = 0.0145889, Final residual = 0.000687016, No Iterations 18
time step continuity errors : sum local = 1.62573e-08, global = 4.18253e-09, cumulative = 4.0827e-07
DICPCG:  Solving for p, Initial residual = 0.004368, Final residual = 9.34585e-07, No Iterations 66
time step continuity errors : sum local = 2.20127e-11, global = -1.23451e-13, cumulative = 4.0827e-07
ExecutionTime = 1.04 s  ClockTime = 2 s

Time = 0.24

Courant Number mean: 0.0364747 max: 0.284654
smoothSolver:  Solving for Ux, Initial residual = 0.00152925, Final residual = 2.46671e-06, No Iterations 2
smoothSolver:  Solving for Uy, Initial residual = 0.00541711, Final residual = 4.25798e-06, No Iterations 2
DICPCG:  Solving for p, Initial residual = 0.0138551, Final residual = 0.000639911, No Iterations 18
time step continuity errors : sum local = 1.4921e-08, global = 3.80346e-09, cumulative = 4.12073e-07
DICPCG:  Solving for p, Initial residual = 0.00416961, Final residual = 8.96494e-07, No Iterations 66
time step continuity errors : sum local = 2.08128e-11, global = -1.16774e-13, cumulative = 4.12073e-07
ExecutionTime = 1.07 s  ClockTime = 2 s

Time = 0.25

Courant Number mean: 0.0364708 max: 0.283497
smoothSolver:  Solving for Ux, Initial residual = 0.00146901, Final residual = 2.33858e-06, No Iterations 2
smoothSolver:  Solving for Uy, Initial residual = 0.00528916, Final residual = 4.11623e-06, No Iterations 2
DICPCG:  Solving for p, Initial residual = 0.013184, Final residual = 0.000597626, No Iterations 18
time step continuity errors : sum local = 1.37442e-08, global = 3.47005e-09, cumulative = 4.15543e-07
DICPCG:  Solving for p, Initial residual = 0.00398548, Final residual = 9.68852e-07, No Iterations 65
time step continuity errors : sum local = 2.21894e-11, global = -3.81573e-13, cumulative = 4.15543e-07
ExecutionTime = 1.1 s  ClockTime = 2 s

Time = 0.26

Courant Number mean: 0.0364672 max: 0.282332
smoothSolver:  Solving for Ux, Initial residual = 0.00141429, Final residual = 2.22107e-06, No Iterations 2
smoothSolver:  Solving for Uy, Initial residual = 0.00517036, Final residual = 3.98309e-06, No Iterations 2
DICPCG:  Solving for p, Initial residual = 0.012579, Final residual = 0.000560083, No Iterations 18
time step continuity errors : sum local = 1.27156e-08, global = 3.17497e-09, cumulative = 4.18718e-07
DICPCG:  Solving for p, Initial residual = 0.00381397, Final residual = 9.4532e-07, No Iterations 65
time step continuity errors : sum local = 2.13754e-11, global = -3.94559e-13, cumulative = 4.18718e-07
ExecutionTime = 1.12 s  ClockTime = 2 s

Time = 0.27

Courant Number mean: 0.0364637 max: 0.281165
smoothSolver:  Solving for Ux, Initial residual = 0.00136407, Final residual = 2.11304e-06, No Iterations 2
smoothSolver:  Solving for Uy, Initial residual = 0.00505964, Final residual = 3.85773e-06, No Iterations 2
DICPCG:  Solving for p, Initial residual = 0.0120732, Final residual = 0.000596137, No Iterations 17
time step continuity errors : sum local = 1.33708e-08, global = 3.01942e-09, cumulative = 4.21737e-07
DICPCG:  Solving for p, Initial residual = 0.00369359, Final residual = 8.85829e-07, No Iterations 65
time step continuity errors : sum local = 1.97941e-11, global = -3.72153e-13, cumulative = 4.21737e-07
ExecutionTime = 1.16 s  ClockTime = 2 s

Time = 0.28

Courant Number mean: 0.0364604 max: 0.28
smoothSolver:  Solving for Ux, Initial residual = 0.00131808, Final residual = 2.01374e-06, No Iterations 2
smoothSolver:  Solving for Uy, Initial residual = 0.00495758, Final residual = 3.73938e-06, No Iterations 2
DICPCG:  Solving for p, Initial residual = 0.0116183, Final residual = 0.000569598, No Iterations 17
time step continuity errors : sum local = 1.26314e-08, global = 2.77298e-09, cumulative = 4.2451e-07
DICPCG:  Solving for p, Initial residual = 0.00355441, Final residual = 8.55089e-07, No Iterations 65
time step continuity errors : sum local = 1.88967e-11, global = -3.81324e-13, cumulative = 4.24509e-07
ExecutionTime = 1.19 s  ClockTime = 2 s

Time = 0.29

Courant Number mean: 0.0364574 max: 0.278841
smoothSolver:  Solving for Ux, Initial residual = 0.0012759, Final residual = 1.92266e-06, No Iterations 2
smoothSolver:  Solving for Uy, Initial residual = 0.00485966, Final residual = 3.62893e-06, No Iterations 2
DICPCG:  Solving for p, Initial residual = 0.0111964, Final residual = 0.000536215, No Iterations 17
time step continuity errors : sum local = 1.17644e-08, global = 2.5552e-09, cumulative = 4.27064e-07
DICPCG:  Solving for p, Initial residual = 0.00342437, Final residual = 9.9475e-07, No Iterations 64
time step continuity errors : sum local = 2.17514e-11, global = -6.42689e-13, cumulative = 4.27064e-07
ExecutionTime = 1.21 s  ClockTime = 2 s

Time = 0.3

Courant Number mean: 0.0364545 max: 0.277689
smoothSolver:  Solving for Ux, Initial residual = 0.00123727, Final residual = 1.83854e-06, No Iterations 2
smoothSolver:  Solving for Uy, Initial residual = 0.0047653, Final residual = 3.52535e-06, No Iterations 2
DICPCG:  Solving for p, Initial residual = 0.0108079, Final residual = 0.000509208, No Iterations 17
time step continuity errors : sum local = 1.10582e-08, global = 2.35885e-09, cumulative = 4.29423e-07
DICPCG:  Solving for p, Initial residual = 0.00330569, Final residual = 9.31454e-07, No Iterations 64
time step continuity errors : sum local = 2.01613e-11, global = -6.18404e-13, cumulative = 4.29422e-07
ExecutionTime = 1.24 s  ClockTime = 2 s

Time = 0.31

Courant Number mean: 0.0364519 max: 0.276549
smoothSolver:  Solving for Ux, Initial residual = 0.00120161, Final residual = 1.76018e-06, No Iterations 2
smoothSolver:  Solving for Uy, Initial residual = 0.00467667, Final residual = 3.42845e-06, No Iterations 2
DICPCG:  Solving for p, Initial residual = 0.010451, Final residual = 0.000491355, No Iterations 17
time step continuity errors : sum local = 1.05658e-08, global = 2.18154e-09, cumulative = 4.31604e-07
DICPCG:  Solving for p, Initial residual = 0.00318791, Final residual = 8.12444e-07, No Iterations 64
time step continuity errors : sum local = 1.74145e-11, global = -5.68652e-13, cumulative = 4.31603e-07
ExecutionTime = 1.27 s  ClockTime = 2 s

Time = 0.32

Courant Number mean: 0.0364493 max: 0.275421
smoothSolver:  Solving for Ux, Initial residual = 0.00116867, Final residual = 1.687e-06, No Iterations 2
smoothSolver:  Solving for Uy, Initial residual = 0.00459443, Final residual = 3.33634e-06, No Iterations 2
DICPCG:  Solving for p, Initial residual = 0.0101177, Final residual = 0.000478992, No Iterations 17
time step continuity errors : sum local = 1.02024e-08, global = 2.01943e-09, cumulative = 4.33622e-07
DICPCG:  Solving for p, Initial residual = 0.00308061, Final residual = 8.47181e-07, No Iterations 63
time step continuity errors : sum local = 1.79875e-11, global = -5.49871e-13, cumulative = 4.33622e-07
ExecutionTime = 1.3 s  ClockTime = 2 s

Time = 0.33

Courant Number mean: 0.0364469 max: 0.274426
smoothSolver:  Solving for Ux, Initial residual = 0.00113843, Final residual = 1.61849e-06, No Iterations 2
smoothSolver:  Solving for Uy, Initial residual = 0.0045173, Final residual = 3.24853e-06, No Iterations 2
DICPCG:  Solving for p, Initial residual = 0.00980649, Final residual = 0.000469343, No Iterations 17
time step continuity errors : sum local = 9.90459e-09, global = 1.86977e-09, cumulative = 4.35492e-07
DICPCG:  Solving for p, Initial residual = 0.00298516, Final residual = 9.95947e-07, No Iterations 58
time step continuity errors : sum local = 2.09518e-11, global = 4.70163e-13, cumulative = 4.35492e-07
ExecutionTime = 1.33 s  ClockTime = 2 s

Time = 0.34

Courant Number mean: 0.0364446 max: 0.273495
smoothSolver:  Solving for Ux, Initial residual = 0.00111029, Final residual = 1.55437e-06, No Iterations 2
smoothSolver:  Solving for Uy, Initial residual = 0.00444351, Final residual = 3.16474e-06, No Iterations 2
DICPCG:  Solving for p, Initial residual = 0.00951682, Final residual = 0.00045933, No Iterations 17
time step continuity errors : sum local = 9.60577e-09, global = 1.73146e-09, cumulative = 4.37224e-07
DICPCG:  Solving for p, Initial residual = 0.00288918, Final residual = 8.59015e-07, No Iterations 58
time step continuity errors : sum local = 1.79077e-11, global = 5.1683e-13, cumulative = 4.37224e-07
ExecutionTime = 1.36 s  ClockTime = 2 s

Time = 0.35

Courant Number mean: 0.0364425 max: 0.272577
smoothSolver:  Solving for Ux, Initial residual = 0.00108386, Final residual = 1.49436e-06, No Iterations 2
smoothSolver:  Solving for Uy, Initial residual = 0.00437288, Final residual = 3.08489e-06, No Iterations 2
DICPCG:  Solving for p, Initial residual = 0.00924953, Final residual = 0.000450288, No Iterations 17
time step continuity errors : sum local = 9.33338e-09, global = 1.60299e-09, cumulative = 4.38827e-07
DICPCG:  Solving for p, Initial residual = 0.00279661, Final residual = 9.98181e-07, No Iterations 58
time step continuity errors : sum local = 2.0624e-11, global = 4.90823e-13, cumulative = 4.38828e-07
ExecutionTime = 1.38 s  ClockTime = 2 s

Time = 0.36

Courant Number mean: 0.0364405 max: 0.271673
smoothSolver:  Solving for Ux, Initial residual = 0.00105927, Final residual = 1.43825e-06, No Iterations 2
smoothSolver:  Solving for Uy, Initial residual = 0.00430542, Final residual = 3.00916e-06, No Iterations 2
DICPCG:  Solving for p, Initial residual = 0.00900429, Final residual = 0.000444353, No Iterations 17
time step continuity errors : sum local = 9.13171e-09, global = 1.48293e-09, cumulative = 4.40311e-07
DICPCG:  Solving for p, Initial residual = 0.00271068, Final residual = 8.49377e-07, No Iterations 63
time step continuity errors : sum local = 1.74019e-11, global = -3.45169e-13, cumulative = 4.4031e-07
ExecutionTime = 1.41 s  ClockTime = 2 s

Time = 0.37

Courant Number mean: 0.0364387 max: 0.270783
smoothSolver:  Solving for Ux, Initial residual = 0.00103631, Final residual = 1.38572e-06, No Iterations 2
smoothSolver:  Solving for Uy, Initial residual = 0.00424222, Final residual = 2.93724e-06, No Iterations 2
DICPCG:  Solving for p, Initial residual = 0.00877349, Final residual = 0.000372433, No Iterations 18
time step continuity errors : sum local = 7.59124e-09, global = 1.32277e-09, cumulative = 4.41633e-07
DICPCG:  Solving for p, Initial residual = 0.00258476, Final residual = 9.0154e-07, No Iterations 59
time step continuity errors : sum local = 1.83226e-11, global = -4.3816e-14, cumulative = 4.41633e-07
ExecutionTime = 1.44 s  ClockTime = 2 s

Time = 0.38

Courant Number mean: 0.0364369 max: 0.270222
smoothSolver:  Solving for Ux, Initial residual = 0.00101477, Final residual = 1.33655e-06, No Iterations 2
smoothSolver:  Solving for Uy, Initial residual = 0.00418268, Final residual = 2.86812e-06, No Iterations 2
DICPCG:  Solving for p, Initial residual = 0.00854885, Final residual = 0.000359795, No Iterations 18
time step continuity errors : sum local = 7.27635e-09, global = 1.23008e-09, cumulative = 4.42863e-07
DICPCG:  Solving for p, Initial residual = 0.00250645, Final residual = 9.92354e-07, No Iterations 62
time step continuity errors : sum local = 2.00123e-11, global = -4.58982e-13, cumulative = 4.42863e-07
ExecutionTime = 1.47 s  ClockTime = 2 s

Time = 0.39

Courant Number mean: 0.0364352 max: 0.269748
smoothSolver:  Solving for Ux, Initial residual = 0.000994548, Final residual = 1.29001e-06, No Iterations 2
smoothSolver:  Solving for Uy, Initial residual = 0.00412614, Final residual = 2.80136e-06, No Iterations 2
DICPCG:  Solving for p, Initial residual = 0.00834647, Final residual = 0.000415842, No Iterations 17
time step continuity errors : sum local = 8.34642e-09, global = 1.17096e-09, cumulative = 4.44033e-07
DICPCG:  Solving for p, Initial residual = 0.00247318, Final residual = 9.11793e-07, No Iterations 66
time step continuity errors : sum local = 1.82515e-11, global = 4.54929e-13, cumulative = 4.44034e-07
ExecutionTime = 1.5 s  ClockTime = 3 s

Time = 0.4

Courant Number mean: 0.0364336 max: 0.269268
smoothSolver:  Solving for Ux, Initial residual = 0.000975547, Final residual = 1.24594e-06, No Iterations 2
smoothSolver:  Solving for Uy, Initial residual = 0.00407077, Final residual = 2.73693e-06, No Iterations 2
DICPCG:  Solving for p, Initial residual = 0.00815839, Final residual = 0.000350139, No Iterations 18
time step continuity errors : sum local = 6.97673e-09, global = 1.04121e-09, cumulative = 4.45075e-07
DICPCG:  Solving for p, Initial residual = 0.00237291, Final residual = 8.57917e-07, No Iterations 66
time step continuity errors : sum local = 1.70492e-11, global = 4.79897e-13, cumulative = 4.45076e-07
ExecutionTime = 1.53 s  ClockTime = 3 s

Time = 0.41

Courant Number mean: 0.0364321 max: 0.268785
smoothSolver:  Solving for Ux, Initial residual = 0.000957922, Final residual = 1.20415e-06, No Iterations 2
smoothSolver:  Solving for Uy, Initial residual = 0.00401658, Final residual = 2.67472e-06, No Iterations 2
DICPCG:  Solving for p, Initial residual = 0.00798093, Final residual = 0.000338824, No Iterations 18
time step continuity errors : sum local = 6.70372e-09, global = 9.65581e-10, cumulative = 4.46041e-07
DICPCG:  Solving for p, Initial residual = 0.00230107, Final residual = 8.86356e-07, No Iterations 66
time step continuity errors : sum local = 1.74914e-11, global = 5.43035e-13, cumulative = 4.46042e-07
ExecutionTime = 1.56 s  ClockTime = 3 s

Time = 0.42

Courant Number mean: 0.0364307 max: 0.268299
smoothSolver:  Solving for Ux, Initial residual = 0.000941158, Final residual = 1.16455e-06, No Iterations 2
smoothSolver:  Solving for Uy, Initial residual = 0.00396465, Final residual = 2.61424e-06, No Iterations 2
DICPCG:  Solving for p, Initial residual = 0.00781596, Final residual = 0.000334722, No Iterations 18
time step continuity errors : sum local = 6.57682e-09, global = 8.8682e-10, cumulative = 4.46929e-07
DICPCG:  Solving for p, Initial residual = 0.00224619, Final residual = 9.12069e-07, No Iterations 66
time step continuity errors : sum local = 1.78747e-11, global = 6.03129e-13, cumulative = 4.46929e-07
ExecutionTime = 1.59 s  ClockTime = 3 s

Time = 0.43

Courant Number mean: 0.0364294 max: 0.267811
smoothSolver:  Solving for Ux, Initial residual = 0.000925288, Final residual = 1.12697e-06, No Iterations 2
smoothSolver:  Solving for Uy, Initial residual = 0.00391451, Final residual = 2.55543e-06, No Iterations 2
DICPCG:  Solving for p, Initial residual = 0.00766394, Final residual = 0.000377136, No Iterations 17
time step continuity errors : sum local = 7.35966e-09, global = 8.34538e-10, cumulative = 4.47764e-07
DICPCG:  Solving for p, Initial residual = 0.00221311, Final residual = 9.5707e-07, No Iterations 66
time step continuity errors : sum local = 1.86282e-11, global = 6.97167e-13, cumulative = 4.47764e-07
ExecutionTime = 1.62 s  ClockTime = 3 s

Time = 0.44

Courant Number mean: 0.0364282 max: 0.267321
smoothSolver:  Solving for Ux, Initial residual = 0.000910186, Final residual = 1.09119e-06, No Iterations 2
smoothSolver:  Solving for Uy, Initial residual = 0.00386733, Final residual = 2.4982e-06, No Iterations 2
DICPCG:  Solving for p, Initial residual = 0.00751902, Final residual = 0.000361123, No Iterations 17
time step continuity errors : sum local = 6.99966e-09, global = 7.57411e-10, cumulative = 4.48522e-07
DICPCG:  Solving for p, Initial residual = 0.00215453, Final residual = 9.4606e-07, No Iterations 66
time step continuity errors : sum local = 1.82896e-11, global = 7.35496e-13, cumulative = 4.48523e-07
ExecutionTime = 1.64 s  ClockTime = 3 s

Time = 0.45

Courant Number mean: 0.036427 max: 0.266831
smoothSolver:  Solving for Ux, Initial residual = 0.000895877, Final residual = 1.057e-06, No Iterations 2
smoothSolver:  Solving for Uy, Initial residual = 0.00382163, Final residual = 2.44259e-06, No Iterations 2
DICPCG:  Solving for p, Initial residual = 0.00738078, Final residual = 0.000342273, No Iterations 17
time step continuity errors : sum local = 6.59056e-09, global = 6.92769e-10, cumulative = 4.49215e-07
DICPCG:  Solving for p, Initial residual = 0.00209552, Final residual = 9.31041e-07, No Iterations 66
time step continuity errors : sum local = 1.78825e-11, global = 7.56486e-13, cumulative = 4.49216e-07
ExecutionTime = 1.67 s  ClockTime = 3 s

Time = 0.46

Courant Number mean: 0.0364259 max: 0.266342
smoothSolver:  Solving for Ux, Initial residual = 0.000882252, Final residual = 1.02432e-06, No Iterations 2
smoothSolver:  Solving for Uy, Initial residual = 0.00377849, Final residual = 2.38848e-06, No Iterations 2
DICPCG:  Solving for p, Initial residual = 0.00725248, Final residual = 0.000359013, No Iterations 16
time step continuity errors : sum local = 6.86844e-09, global = 5.87893e-10, cumulative = 4.49804e-07
DICPCG:  Solving for p, Initial residual = 0.00205305, Final residual = 9.13119e-07, No Iterations 66
time step continuity errors : sum local = 1.74256e-11, global = 7.32092e-13, cumulative = 4.49805e-07
ExecutionTime = 1.71 s  ClockTime = 3 s

Time = 0.47

Courant Number mean: 0.0364249 max: 0.265852
smoothSolver:  Solving for Ux, Initial residual = 0.00086938, Final residual = 9.93076e-07, No Iterations 2
smoothSolver:  Solving for Uy, Initial residual = 0.00373601, Final residual = 2.33579e-06, No Iterations 2
DICPCG:  Solving for p, Initial residual = 0.00713761, Final residual = 0.000349501, No Iterations 14
time step continuity errors : sum local = 6.64364e-09, global = 3.66716e-10, cumulative = 4.50171e-07
DICPCG:  Solving for p, Initial residual = 0.00203305, Final residual = 8.32239e-07, No Iterations 66
time step continuity errors : sum local = 1.5781e-11, global = 7.76511e-13, cumulative = 4.50172e-07
ExecutionTime = 1.73 s  ClockTime = 3 s

Time = 0.48

Courant Number mean: 0.036424 max: 0.265364
smoothSolver:  Solving for Ux, Initial residual = 0.000857189, Final residual = 9.63253e-07, No Iterations 2
smoothSolver:  Solving for Uy, Initial residual = 0.00369398, Final residual = 2.28486e-06, No Iterations 2
DICPCG:  Solving for p, Initial residual = 0.00703616, Final residual = 0.000327607, No Iterations 13
time step continuity errors : sum local = 6.18794e-09, global = 3.11695e-10, cumulative = 4.50484e-07
DICPCG:  Solving for p, Initial residual = 0.00195959, Final residual = 9.47522e-07, No Iterations 65
time step continuity errors : sum local = 1.78528e-11, global = 7.35131e-13, cumulative = 4.50485e-07
ExecutionTime = 1.76 s  ClockTime = 3 s

Time = 0.49

Courant Number mean: 0.0364231 max: 0.264878
smoothSolver:  Solving for Ux, Initial residual = 0.000845488, Final residual = 9.34637e-07, No Iterations 2
smoothSolver:  Solving for Uy, Initial residual = 0.00365374, Final residual = 2.23507e-06, No Iterations 2
DICPCG:  Solving for p, Initial residual = 0.00692798, Final residual = 0.000302595, No Iterations 13
time step continuity errors : sum local = 5.67973e-09, global = 2.88988e-10, cumulative = 4.50774e-07
DICPCG:  Solving for p, Initial residual = 0.00190375, Final residual = 9.78651e-07, No Iterations 65
time step continuity errors : sum local = 1.83246e-11, global = 7.64327e-13, cumulative = 4.50774e-07
ExecutionTime = 1.78 s  ClockTime = 3 s

Time = 0.5

Courant Number mean: 0.0364223 max: 0.264394
smoothSolver:  Solving for Ux, Initial residual = 0.000834245, Final residual = 9.07176e-07, No Iterations 2
smoothSolver:  Solving for Uy, Initial residual = 0.00361541, Final residual = 2.18638e-06, No Iterations 2
DICPCG:  Solving for p, Initial residual = 0.00683172, Final residual = 0.000281749, No Iterations 13
time step continuity errors : sum local = 5.25621e-09, global = 2.68783e-10, cumulative = 4.51043e-07
DICPCG:  Solving for p, Initial residual = 0.0018545, Final residual = 9.91151e-07, No Iterations 65
time step continuity errors : sum local = 1.84458e-11, global = 7.80603e-13, cumulative = 4.51044e-07
ExecutionTime = 1.82 s  ClockTime = 3 s

Time = 0.51

Courant Number mean: 0.0364215 max: 0.263912
smoothSolver:  Solving for Ux, Initial residual = 0.000823398, Final residual = 8.8084e-07, No Iterations 2
smoothSolver:  Solving for Uy, Initial residual = 0.00357776, Final residual = 2.13892e-06, No Iterations 2
DICPCG:  Solving for p, Initial residual = 0.00673556, Final residual = 0.000262921, No Iterations 13
time step continuity errors : sum local = 4.87745e-09, global = 2.50749e-10, cumulative = 4.51295e-07
DICPCG:  Solving for p, Initial residual = 0.00180638, Final residual = 9.93716e-07, No Iterations 65
time step continuity errors : sum local = 1.83979e-11, global = 7.87856e-13, cumulative = 4.51295e-07
ExecutionTime = 1.84 s  ClockTime = 3 s

Time = 0.52

Courant Number mean: 0.0364208 max: 0.263433
smoothSolver:  Solving for Ux, Initial residual = 0.000812925, Final residual = 8.55581e-07, No Iterations 2
smoothSolver:  Solving for Uy, Initial residual = 0.0035404, Final residual = 2.09275e-06, No Iterations 2
DICPCG:  Solving for p, Initial residual = 0.006637, Final residual = 0.000246608, No Iterations 13
time step continuity errors : sum local = 4.55343e-09, global = 2.34628e-10, cumulative = 4.5153e-07
DICPCG:  Solving for p, Initial residual = 0.00175972, Final residual = 9.93279e-07, No Iterations 65
time step continuity errors : sum local = 1.83118e-11, global = 7.89285e-13, cumulative = 4.51531e-07
ExecutionTime = 1.87 s  ClockTime = 3 s

Time = 0.53

Courant Number mean: 0.0364201 max: 0.262957
smoothSolver:  Solving for Ux, Initial residual = 0.000802823, Final residual = 8.31321e-07, No Iterations 2
smoothSolver:  Solving for Uy, Initial residual = 0.00350384, Final residual = 2.04782e-06, No Iterations 2
DICPCG:  Solving for p, Initial residual = 0.00653646, Final residual = 0.000232656, No Iterations 13
time step continuity errors : sum local = 4.27903e-09, global = 2.20069e-10, cumulative = 4.51751e-07
DICPCG:  Solving for p, Initial residual = 0.00171525, Final residual = 9.91368e-07, No Iterations 65
time step continuity errors : sum local = 1.82109e-11, global = 7.87349e-13, cumulative = 4.51752e-07
ExecutionTime = 1.9 s  ClockTime = 3 s

Time = 0.54

Courant Number mean: 0.0364195 max: 0.262484
smoothSolver:  Solving for Ux, Initial residual = 0.000793082, Final residual = 8.08005e-07, No Iterations 2
smoothSolver:  Solving for Uy, Initial residual = 0.00346797, Final residual = 2.00414e-06, No Iterations 2
DICPCG:  Solving for p, Initial residual = 0.00643589, Final residual = 0.000220868, No Iterations 13
time step continuity errors : sum local = 4.04785e-09, global = 2.0683e-10, cumulative = 4.51959e-07
DICPCG:  Solving for p, Initial residual = 0.00167402, Final residual = 9.87394e-07, No Iterations 65
time step continuity errors : sum local = 1.80741e-11, global = 7.83458e-13, cumulative = 4.51959e-07
ExecutionTime = 1.92 s  ClockTime = 3 s

Time = 0.55

Courant Number mean: 0.036419 max: 0.262016
smoothSolver:  Solving for Ux, Initial residual = 0.00078365, Final residual = 7.85618e-07, No Iterations 2
smoothSolver:  Solving for Uy, Initial residual = 0.00343225, Final residual = 1.96168e-06, No Iterations 2
DICPCG:  Solving for p, Initial residual = 0.0063372, Final residual = 0.000210921, No Iterations 13
time step continuity errors : sum local = 3.85215e-09, global = 1.94727e-10, cumulative = 4.52154e-07
DICPCG:  Solving for p, Initial residual = 0.00163536, Final residual = 9.82919e-07, No Iterations 65
time step continuity errors : sum local = 1.79298e-11, global = 7.78227e-13, cumulative = 4.52155e-07
ExecutionTime = 1.95 s  ClockTime = 3 s

Time = 0.56

Courant Number mean: 0.0364185 max: 0.261633
smoothSolver:  Solving for Ux, Initial residual = 0.00077451, Final residual = 7.64084e-07, No Iterations 2
smoothSolver:  Solving for Uy, Initial residual = 0.00339719, Final residual = 1.92044e-06, No Iterations 2
DICPCG:  Solving for p, Initial residual = 0.00624468, Final residual = 0.000202603, No Iterations 13
time step continuity errors : sum local = 3.68772e-09, global = 1.83622e-10, cumulative = 4.52339e-07
DICPCG:  Solving for p, Initial residual = 0.00159881, Final residual = 9.79225e-07, No Iterations 65
time step continuity errors : sum local = 1.78026e-11, global = 7.71852e-13, cumulative = 4.52339e-07
ExecutionTime = 1.98 s  ClockTime = 3 s

Time = 0.57

Courant Number mean: 0.0364181 max: 0.261277
smoothSolver:  Solving for Ux, Initial residual = 0.000765665, Final residual = 7.43357e-07, No Iterations 2
smoothSolver:  Solving for Uy, Initial residual = 0.00336336, Final residual = 1.88047e-06, No Iterations 2
DICPCG:  Solving for p, Initial residual = 0.00615445, Final residual = 0.000195571, No Iterations 13
time step continuity errors : sum local = 3.54804e-09, global = 1.73406e-10, cumulative = 4.52513e-07
DICPCG:  Solving for p, Initial residual = 0.00156404, Final residual = 9.75994e-07, No Iterations 65
time step continuity errors : sum local = 1.76857e-11, global = 7.64469e-13, cumulative = 4.52513e-07
ExecutionTime = 2.01 s  ClockTime = 3 s

Time = 0.58

Courant Number mean: 0.0364178 max: 0.260925
smoothSolver:  Solving for Ux, Initial residual = 0.000757085, Final residual = 7.23415e-07, No Iterations 2
smoothSolver:  Solving for Uy, Initial residual = 0.00332987, Final residual = 1.8418e-06, No Iterations 2
DICPCG:  Solving for p, Initial residual = 0.00606667, Final residual = 0.000189604, No Iterations 13
time step continuity errors : sum local = 3.42875e-09, global = 1.63992e-10, cumulative = 4.52677e-07
DICPCG:  Solving for p, Initial residual = 0.00153098, Final residual = 9.71837e-07, No Iterations 65
time step continuity errors : sum local = 1.75547e-11, global = 7.5666e-13, cumulative = 4.52678e-07
ExecutionTime = 2.04 s  ClockTime = 3 s

Time = 0.59

Courant Number mean: 0.0364175 max: 0.260577
smoothSolver:  Solving for Ux, Initial residual = 0.00074876, Final residual = 7.04227e-07, No Iterations 2
smoothSolver:  Solving for Uy, Initial residual = 0.00329695, Final residual = 1.80431e-06, No Iterations 2
DICPCG:  Solving for p, Initial residual = 0.00598126, Final residual = 0.000184546, No Iterations 13
time step continuity errors : sum local = 3.32719e-09, global = 1.55305e-10, cumulative = 4.52833e-07
DICPCG:  Solving for p, Initial residual = 0.00149869, Final residual = 9.66059e-07, No Iterations 65
time step continuity errors : sum local = 1.73995e-11, global = 7.49693e-13, cumulative = 4.52834e-07
ExecutionTime = 2.06 s  ClockTime = 3 s

Time = 0.6

Courant Number mean: 0.0364172 max: 0.260233
smoothSolver:  Solving for Ux, Initial residual = 0.00074068, Final residual = 6.85729e-07, No Iterations 2
smoothSolver:  Solving for Uy, Initial residual = 0.0032642, Final residual = 1.76827e-06, No Iterations 2
DICPCG:  Solving for p, Initial residual = 0.0058959, Final residual = 0.000180217, No Iterations 13
time step continuity errors : sum local = 3.23988e-09, global = 1.47279e-10, cumulative = 4.52982e-07
DICPCG:  Solving for p, Initial residual = 0.00146747, Final residual = 9.5904e-07, No Iterations 65
time step continuity errors : sum local = 1.72241e-11, global = 7.44806e-13, cumulative = 4.52982e-07
ExecutionTime = 2.09 s  ClockTime = 3 s

Time = 0.61

Courant Number mean: 0.036417 max: 0.259893
smoothSolver:  Solving for Ux, Initial residual = 0.000732863, Final residual = 6.67916e-07, No Iterations 2
smoothSolver:  Solving for Uy, Initial residual = 0.00323194, Final residual = 1.73329e-06, No Iterations 2
DICPCG:  Solving for p, Initial residual = 0.00581255, Final residual = 0.00017676, No Iterations 13
time step continuity errors : sum local = 3.16897e-09, global = 1.39859e-10, cumulative = 4.53122e-07
DICPCG:  Solving for p, Initial residual = 0.00143719, Final residual = 9.50692e-07, No Iterations 65
time step continuity errors : sum local = 1.70279e-11, global = 7.42237e-13, cumulative = 4.53123e-07
ExecutionTime = 2.12 s  ClockTime = 3 s

Time = 0.62

Courant Number mean: 0.0364167 max: 0.259558
smoothSolver:  Solving for Ux, Initial residual = 0.000725303, Final residual = 6.50757e-07, No Iterations 2
smoothSolver:  Solving for Uy, Initial residual = 0.0031999, Final residual = 1.69934e-06, No Iterations 2
DICPCG:  Solving for p, Initial residual = 0.00573121, Final residual = 0.000173859, No Iterations 13
time step continuity errors : sum local = 3.10898e-09, global = 1.32996e-10, cumulative = 4.53256e-07
DICPCG:  Solving for p, Initial residual = 0.00140779, Final residual = 9.41065e-07, No Iterations 65
time step continuity errors : sum local = 1.68146e-11, global = 7.41311e-13, cumulative = 4.53257e-07
ExecutionTime = 2.15 s  ClockTime = 3 s

Time = 0.63

Courant Number mean: 0.0364166 max: 0.259228
smoothSolver:  Solving for Ux, Initial residual = 0.000717967, Final residual = 6.34198e-07, No Iterations 2
smoothSolver:  Solving for Uy, Initial residual = 0.00316881, Final residual = 1.66632e-06, No Iterations 2
DICPCG:  Solving for p, Initial residual = 0.00565025, Final residual = 0.00017155, No Iterations 13
time step continuity errors : sum local = 3.06056e-09, global = 1.26645e-10, cumulative = 4.53383e-07
DICPCG:  Solving for p, Initial residual = 0.00137962, Final residual = 9.30831e-07, No Iterations 65
time step continuity errors : sum local = 1.65942e-11, global = 7.41113e-13, cumulative = 4.53384e-07
ExecutionTime = 2.18 s  ClockTime = 4 s

Time = 0.64

Courant Number mean: 0.0364164 max: 0.258984
smoothSolver:  Solving for Ux, Initial residual = 0.000710828, Final residual = 6.18251e-07, No Iterations 2
smoothSolver:  Solving for Uy, Initial residual = 0.00313759, Final residual = 1.63416e-06, No Iterations 2
DICPCG:  Solving for p, Initial residual = 0.00556953, Final residual = 0.000169594, No Iterations 13
time step continuity errors : sum local = 3.01898e-09, global = 1.20769e-10, cumulative = 4.53505e-07
DICPCG:  Solving for p, Initial residual = 0.00135269, Final residual = 9.21226e-07, No Iterations 65
time step continuity errors : sum local = 1.63869e-11, global = 7.40898e-13, cumulative = 4.53506e-07
ExecutionTime = 2.21 s  ClockTime = 4 s

Time = 0.65

Courant Number mean: 0.0364164 max: 0.258785
smoothSolver:  Solving for Ux, Initial residual = 0.000703882, Final residual = 6.02861e-07, No Iterations 2
smoothSolver:  Solving for Uy, Initial residual = 0.00310603, Final residual = 1.60288e-06, No Iterations 2
DICPCG:  Solving for p, Initial residual = 0.00548963, Final residual = 0.000167986, No Iterations 13
time step continuity errors : sum local = 2.98396e-09, global = 1.15332e-10, cumulative = 4.53621e-07
DICPCG:  Solving for p, Initial residual = 0.00132652, Final residual = 9.12072e-07, No Iterations 65
time step continuity errors : sum local = 1.61898e-11, global = 7.40165e-13, cumulative = 4.53622e-07
ExecutionTime = 2.23 s  ClockTime = 4 s

Time = 0.66

Courant Number mean: 0.0364163 max: 0.258587
smoothSolver:  Solving for Ux, Initial residual = 0.000697119, Final residual = 5.88028e-07, No Iterations 2
smoothSolver:  Solving for Uy, Initial residual = 0.00307493, Final residual = 1.5726e-06, No Iterations 2
DICPCG:  Solving for p, Initial residual = 0.00541577, Final residual = 0.000166666, No Iterations 13
time step continuity errors : sum local = 2.95437e-09, global = 1.10302e-10, cumulative = 4.53732e-07
DICPCG:  Solving for p, Initial residual = 0.00130139, Final residual = 9.03771e-07, No Iterations 65
time step continuity errors : sum local = 1.60095e-11, global = 7.38606e-13, cumulative = 4.53733e-07
ExecutionTime = 2.26 s  ClockTime = 4 s

Time = 0.67

Courant Number mean: 0.0364163 max: 0.25839
smoothSolver:  Solving for Ux, Initial residual = 0.000690546, Final residual = 5.73738e-07, No Iterations 2
smoothSolver:  Solving for Uy, Initial residual = 0.00304399, Final residual = 1.54327e-06, No Iterations 2
DICPCG:  Solving for p, Initial residual = 0.00534501, Final residual = 0.000165587, No Iterations 13
time step continuity errors : sum local = 2.92959e-09, global = 1.05651e-10, cumulative = 4.53838e-07
DICPCG:  Solving for p, Initial residual = 0.00127699, Final residual = 8.95447e-07, No Iterations 65
time step continuity errors : sum local = 1.58331e-11, global = 7.36053e-13, cumulative = 4.53839e-07
ExecutionTime = 2.3 s  ClockTime = 4 s

Time = 0.68

Courant Number mean: 0.0364164 max: 0.258193
smoothSolver:  Solving for Ux, Initial residual = 0.000684137, Final residual = 5.59939e-07, No Iterations 2
smoothSolver:  Solving for Uy, Initial residual = 0.00301318, Final residual = 1.51487e-06, No Iterations 2
DICPCG:  Solving for p, Initial residual = 0.00527432, Final residual = 0.000164748, No Iterations 13
time step continuity errors : sum local = 2.90955e-09, global = 1.01352e-10, cumulative = 4.5394e-07
DICPCG:  Solving for p, Initial residual = 0.00125345, Final residual = 8.8755e-07, No Iterations 65
time step continuity errors : sum local = 1.56656e-11, global = 7.32422e-13, cumulative = 4.53941e-07
ExecutionTime = 2.32 s  ClockTime = 4 s

Time = 0.69

Courant Number mean: 0.0364164 max: 0.257998
smoothSolver:  Solving for Ux, Initial residual = 0.00067789, Final residual = 5.4661e-07, No Iterations 2
smoothSolver:  Solving for Uy, Initial residual = 0.00298252, Final residual = 1.48731e-06, No Iterations 2
DICPCG:  Solving for p, Initial residual = 0.00520469, Final residual = 0.000164055, No Iterations 13
time step continuity errors : sum local = 2.89231e-09, global = 9.73825e-11, cumulative = 4.54038e-07
DICPCG:  Solving for p, Initial residual = 0.00123117, Final residual = 8.80192e-07, No Iterations 65
time step continuity errors : sum local = 1.55094e-11, global = 7.27649e-13, cumulative = 4.54039e-07
ExecutionTime = 2.35 s  ClockTime = 4 s

Time = 0.7

Courant Number mean: 0.0364165 max: 0.257804
smoothSolver:  Solving for Ux, Initial residual = 0.000671809, Final residual = 9.97043e-06, No Iterations 1
smoothSolver:  Solving for Uy, Initial residual = 0.00295289, Final residual = 1.46059e-06, No Iterations 2
DICPCG:  Solving for p, Initial residual = 0.00500029, Final residual = 0.000233621, No Iterations 38
time step continuity errors : sum local = 4.11503e-09, global = 1.64668e-10, cumulative = 4.54204e-07
DICPCG:  Solving for p, Initial residual = 0.00176763, Final residual = 7.58003e-07, No Iterations 68
time step continuity errors : sum local = 1.33692e-11, global = -2.99958e-13, cumulative = 4.54204e-07
ExecutionTime = 2.39 s  ClockTime = 4 s

Time = 0.71

Courant Number mean: 0.0364167 max: 0.257613
smoothSolver:  Solving for Ux, Initial residual = 0.000665412, Final residual = 9.79338e-06, No Iterations 1
smoothSolver:  Solving for Uy, Initial residual = 0.00292097, Final residual = 1.43589e-06, No Iterations 2
DICPCG:  Solving for p, Initial residual = 0.00487893, Final residual = 0.000240198, No Iterations 20
time step continuity errors : sum local = 4.22434e-09, global = 1.26659e-09, cumulative = 4.5547e-07
DICPCG:  Solving for p, Initial residual = 0.00164864, Final residual = 9.27353e-07, No Iterations 67
time step continuity errors : sum local = 1.63076e-11, global = -3.47836e-13, cumulative = 4.5547e-07
ExecutionTime = 2.42 s  ClockTime = 4 s

Time = 0.72

Courant Number mean: 0.0364169 max: 0.257423
smoothSolver:  Solving for Ux, Initial residual = 0.000659585, Final residual = 9.60619e-06, No Iterations 1
smoothSolver:  Solving for Uy, Initial residual = 0.00289224, Final residual = 1.41064e-06, No Iterations 2
DICPCG:  Solving for p, Initial residual = 0.00481497, Final residual = 0.000235184, No Iterations 18
time step continuity errors : sum local = 4.13397e-09, global = 1.24367e-09, cumulative = 4.56713e-07
DICPCG:  Solving for p, Initial residual = 0.00166776, Final residual = 7.64479e-07, No Iterations 68
time step continuity errors : sum local = 1.34355e-11, global = -2.72771e-13, cumulative = 4.56713e-07
ExecutionTime = 2.44 s  ClockTime = 4 s

Time = 0.73

Courant Number mean: 0.0364171 max: 0.257236
smoothSolver:  Solving for Ux, Initial residual = 0.000653945, Final residual = 9.42339e-06, No Iterations 1
smoothSolver:  Solving for Uy, Initial residual = 0.00286322, Final residual = 1.3864e-06, No Iterations 2
DICPCG:  Solving for p, Initial residual = 0.0047526, Final residual = 0.000229477, No Iterations 18
time step continuity errors : sum local = 4.03132e-09, global = 1.21352e-09, cumulative = 4.57927e-07
DICPCG:  Solving for p, Initial residual = 0.00164365, Final residual = 7.50114e-07, No Iterations 68
time step continuity errors : sum local = 1.31756e-11, global = -2.61349e-13, cumulative = 4.57926e-07
ExecutionTime = 2.47 s  ClockTime = 4 s

Time = 0.74

Courant Number mean: 0.0364173 max: 0.257051
smoothSolver:  Solving for Ux, Initial residual = 0.000648438, Final residual = 9.24609e-06, No Iterations 1
smoothSolver:  Solving for Uy, Initial residual = 0.00283462, Final residual = 1.36263e-06, No Iterations 2
DICPCG:  Solving for p, Initial residual = 0.00469028, Final residual = 0.000222974, No Iterations 18
time step continuity errors : sum local = 3.91493e-09, global = 1.18671e-09, cumulative = 4.59113e-07
DICPCG:  Solving for p, Initial residual = 0.00161267, Final residual = 9.90946e-07, No Iterations 67
time step continuity errors : sum local = 1.73965e-11, global = -3.08186e-13, cumulative = 4.59113e-07
ExecutionTime = 2.5 s  ClockTime = 4 s

Time = 0.75

Courant Number mean: 0.0364175 max: 0.256868
smoothSolver:  Solving for Ux, Initial residual = 0.000643049, Final residual = 9.07358e-06, No Iterations 1
smoothSolver:  Solving for Uy, Initial residual = 0.00280611, Final residual = 1.33955e-06, No Iterations 2
DICPCG:  Solving for p, Initial residual = 0.00462918, Final residual = 0.000216774, No Iterations 18
time step continuity errors : sum local = 3.80408e-09, global = 1.16105e-09, cumulative = 4.60274e-07
DICPCG:  Solving for p, Initial residual = 0.00158261, Final residual = 9.58431e-07, No Iterations 67
time step continuity errors : sum local = 1.68171e-11, global = -2.88184e-13, cumulative = 4.60274e-07
ExecutionTime = 2.53 s  ClockTime = 4 s

Time = 0.76

Courant Number mean: 0.0364178 max: 0.256688
smoothSolver:  Solving for Ux, Initial residual = 0.000637797, Final residual = 8.90579e-06, No Iterations 1
smoothSolver:  Solving for Uy, Initial residual = 0.00277819, Final residual = 1.31712e-06, No Iterations 2
DICPCG:  Solving for p, Initial residual = 0.00456951, Final residual = 0.000225216, No Iterations 17
time step continuity errors : sum local = 3.95024e-09, global = 1.12218e-09, cumulative = 4.61396e-07
DICPCG:  Solving for p, Initial residual = 0.00154621, Final residual = 9.80312e-07, No Iterations 67
time step continuity errors : sum local = 1.7192e-11, global = -3.44412e-13, cumulative = 4.61395e-07
ExecutionTime = 2.56 s  ClockTime = 4 s

Time = 0.77

Courant Number mean: 0.0364181 max: 0.256511
smoothSolver:  Solving for Ux, Initial residual = 0.000632654, Final residual = 8.74254e-06, No Iterations 1
smoothSolver:  Solving for Uy, Initial residual = 0.00275022, Final residual = 1.2954e-06, No Iterations 2
DICPCG:  Solving for p, Initial residual = 0.00451281, Final residual = 0.000219112, No Iterations 17
time step continuity errors : sum local = 3.84133e-09, global = 1.09421e-09, cumulative = 4.6249e-07
DICPCG:  Solving for p, Initial residual = 0.00151762, Final residual = 9.65979e-07, No Iterations 67
time step continuity errors : sum local = 1.69325e-11, global = -3.24749e-13, cumulative = 4.62489e-07
ExecutionTime = 2.58 s  ClockTime = 4 s

Time = 0.78

Courant Number mean: 0.0364185 max: 0.256337
smoothSolver:  Solving for Ux, Initial residual = 0.000627627, Final residual = 8.58408e-06, No Iterations 1
smoothSolver:  Solving for Uy, Initial residual = 0.00272224, Final residual = 1.27423e-06, No Iterations 2
DICPCG:  Solving for p, Initial residual = 0.00445528, Final residual = 0.000213321, No Iterations 17
time step continuity errors : sum local = 3.73801e-09, global = 1.07277e-09, cumulative = 4.63562e-07
DICPCG:  Solving for p, Initial residual = 0.00148954, Final residual = 9.46899e-07, No Iterations 67
time step continuity errors : sum local = 1.65903e-11, global = -3.07191e-13, cumulative = 4.63562e-07
ExecutionTime = 2.61 s  ClockTime = 4 s

Time = 0.79

Courant Number mean: 0.0364188 max: 0.256166
smoothSolver:  Solving for Ux, Initial residual = 0.000622711, Final residual = 8.42966e-06, No Iterations 1
smoothSolver:  Solving for Uy, Initial residual = 0.00269427, Final residual = 1.25353e-06, No Iterations 2
DICPCG:  Solving for p, Initial residual = 0.0043978, Final residual = 0.000207752, No Iterations 17
time step continuity errors : sum local = 3.63875e-09, global = 1.05212e-09, cumulative = 4.64614e-07
DICPCG:  Solving for p, Initial residual = 0.00146221, Final residual = 9.27964e-07, No Iterations 67
time step continuity errors : sum local = 1.62512e-11, global = -2.88448e-13, cumulative = 4.64614e-07
ExecutionTime = 2.65 s  ClockTime = 4 s

Time = 0.8

Courant Number mean: 0.0364192 max: 0.255998
smoothSolver:  Solving for Ux, Initial residual = 0.000617898, Final residual = 8.27952e-06, No Iterations 1
smoothSolver:  Solving for Uy, Initial residual = 0.00266637, Final residual = 1.23334e-06, No Iterations 2
DICPCG:  Solving for p, Initial residual = 0.00434074, Final residual = 0.000202451, No Iterations 17
time step continuity errors : sum local = 3.54433e-09, global = 1.03234e-09, cumulative = 4.65646e-07
DICPCG:  Solving for p, Initial residual = 0.00143547, Final residual = 9.08121e-07, No Iterations 67
time step continuity errors : sum local = 1.58968e-11, global = -2.68595e-13, cumulative = 4.65646e-07
ExecutionTime = 2.68 s  ClockTime = 4 s

Time = 0.81

Courant Number mean: 0.0364196 max: 0.255833
smoothSolver:  Solving for Ux, Initial residual = 0.000613187, Final residual = 8.13317e-06, No Iterations 1
smoothSolver:  Solving for Uy, Initial residual = 0.00263859, Final residual = 1.21361e-06, No Iterations 2
DICPCG:  Solving for p, Initial residual = 0.00428359, Final residual = 0.000197402, No Iterations 17
time step continuity errors : sum local = 3.4545e-09, global = 1.01335e-09, cumulative = 4.66659e-07
DICPCG:  Solving for p, Initial residual = 0.00140941, Final residual = 8.87019e-07, No Iterations 67
time step continuity errors : sum local = 1.55212e-11, global = -2.47474e-13, cumulative = 4.66659e-07
ExecutionTime = 2.7 s  ClockTime = 4 s

Time = 0.82

Courant Number mean: 0.03642 max: 0.255672
smoothSolver:  Solving for Ux, Initial residual = 0.000608579, Final residual = 7.99064e-06, No Iterations 1
smoothSolver:  Solving for Uy, Initial residual = 0.00261081, Final residual = 1.19432e-06, No Iterations 2
DICPCG:  Solving for p, Initial residual = 0.00422629, Final residual = 0.000192595, No Iterations 17
time step continuity errors : sum local = 3.36914e-09, global = 9.95116e-10, cumulative = 4.67654e-07
DICPCG:  Solving for p, Initial residual = 0.00138397, Final residual = 8.64671e-07, No Iterations 67
time step continuity errors : sum local = 1.51251e-11, global = -2.24966e-13, cumulative = 4.67654e-07
ExecutionTime = 2.73 s  ClockTime = 4 s

Time = 0.83

Courant Number mean: 0.0364205 max: 0.255514
smoothSolver:  Solving for Ux, Initial residual = 0.000604057, Final residual = 7.85165e-06, No Iterations 1
smoothSolver:  Solving for Uy, Initial residual = 0.00258336, Final residual = 1.17546e-06, No Iterations 2
DICPCG:  Solving for p, Initial residual = 0.00416849, Final residual = 0.000208334, No Iterations 16
time step continuity errors : sum local = 3.6435e-09, global = 9.24072e-10, cumulative = 4.68578e-07
DICPCG:  Solving for p, Initial residual = 0.00135835, Final residual = 8.71637e-07, No Iterations 67
time step continuity errors : sum local = 1.52434e-11, global = -2.71021e-13, cumulative = 4.68578e-07
ExecutionTime = 2.76 s  ClockTime = 4 s

Time = 0.84

Courant Number mean: 0.0364209 max: 0.255359
smoothSolver:  Solving for Ux, Initial residual = 0.000599624, Final residual = 7.71633e-06, No Iterations 1
smoothSolver:  Solving for Uy, Initial residual = 0.00255681, Final residual = 1.15693e-06, No Iterations 2
DICPCG:  Solving for p, Initial residual = 0.0041101, Final residual = 0.000203827, No Iterations 16
time step continuity errors : sum local = 3.5642e-09, global = 9.04066e-10, cumulative = 4.69482e-07
DICPCG:  Solving for p, Initial residual = 0.00133252, Final residual = 8.44851e-07, No Iterations 67
time step continuity errors : sum local = 1.4774e-11, global = -2.48625e-13, cumulative = 4.69481e-07
ExecutionTime = 2.79 s  ClockTime = 4 s

Time = 0.85

Courant Number mean: 0.0364214 max: 0.255208
smoothSolver:  Solving for Ux, Initial residual = 0.000595283, Final residual = 7.58452e-06, No Iterations 1
smoothSolver:  Solving for Uy, Initial residual = 0.00253123, Final residual = 1.13887e-06, No Iterations 2
DICPCG:  Solving for p, Initial residual = 0.00405183, Final residual = 0.000199063, No Iterations 16
time step continuity errors : sum local = 3.48084e-09, global = 8.89909e-10, cumulative = 4.70371e-07
DICPCG:  Solving for p, Initial residual = 0.00130822, Final residual = 8.259e-07, No Iterations 67
time step continuity errors : sum local = 1.44431e-11, global = -2.30868e-13, cumulative = 4.70371e-07
ExecutionTime = 2.82 s  ClockTime = 5 s

Time = 0.86

Courant Number mean: 0.036422 max: 0.25506
smoothSolver:  Solving for Ux, Initial residual = 0.000591015, Final residual = 7.45628e-06, No Iterations 1
smoothSolver:  Solving for Uy, Initial residual = 0.00250546, Final residual = 1.12119e-06, No Iterations 2
DICPCG:  Solving for p, Initial residual = 0.00399353, Final residual = 0.000199133, No Iterations 15
time step continuity errors : sum local = 3.48228e-09, global = 8.1379e-10, cumulative = 4.71185e-07
DICPCG:  Solving for p, Initial residual = 0.00128192, Final residual = 7.87449e-07, No Iterations 67
time step continuity errors : sum local = 1.37717e-11, global = -2.67126e-13, cumulative = 4.71185e-07
ExecutionTime = 2.85 s  ClockTime = 5 s

Time = 0.87

Courant Number mean: 0.0364226 max: 0.254916
smoothSolver:  Solving for Ux, Initial residual = 0.000586824, Final residual = 7.33111e-06, No Iterations 1
smoothSolver:  Solving for Uy, Initial residual = 0.00248005, Final residual = 1.10387e-06, No Iterations 2
DICPCG:  Solving for p, Initial residual = 0.00393604, Final residual = 0.000193324, No Iterations 15
time step continuity errors : sum local = 3.38118e-09, global = 7.9902e-10, cumulative = 4.71984e-07
DICPCG:  Solving for p, Initial residual = 0.00125677, Final residual = 7.71928e-07, No Iterations 67
time step continuity errors : sum local = 1.35029e-11, global = -2.52336e-13, cumulative = 4.71983e-07
ExecutionTime = 2.88 s  ClockTime = 5 s

Time = 0.88

Courant Number mean: 0.0364232 max: 0.254776
smoothSolver:  Solving for Ux, Initial residual = 0.000582723, Final residual = 7.20882e-06, No Iterations 1
smoothSolver:  Solving for Uy, Initial residual = 0.00245481, Final residual = 1.08696e-06, No Iterations 2
DICPCG:  Solving for p, Initial residual = 0.00387774, Final residual = 0.000188347, No Iterations 15
time step continuity errors : sum local = 3.29489e-09, global = 7.88476e-10, cumulative = 4.72772e-07
DICPCG:  Solving for p, Initial residual = 0.00123353, Final residual = 7.50155e-07, No Iterations 67
time step continuity errors : sum local = 1.31254e-11, global = -2.35139e-13, cumulative = 4.72772e-07
ExecutionTime = 2.91 s  ClockTime = 5 s

Time = 0.89

Courant Number mean: 0.0364238 max: 0.254639
smoothSolver:  Solving for Ux, Initial residual = 0.000578698, Final residual = 7.08947e-06, No Iterations 1
smoothSolver:  Solving for Uy, Initial residual = 0.00242965, Final residual = 1.07043e-06, No Iterations 2
DICPCG:  Solving for p, Initial residual = 0.00381957, Final residual = 0.000183548, No Iterations 15
time step continuity errors : sum local = 3.21184e-09, global = 7.78278e-10, cumulative = 4.7355e-07
DICPCG:  Solving for p, Initial residual = 0.00121076, Final residual = 9.93715e-07, No Iterations 66
time step continuity errors : sum local = 1.73922e-11, global = -2.40333e-13, cumulative = 4.7355e-07
ExecutionTime = 2.93 s  ClockTime = 5 s

Time = 0.9

Courant Number mean: 0.0364245 max: 0.25458
smoothSolver:  Solving for Ux, Initial residual = 0.000574739, Final residual = 6.97291e-06, No Iterations 1
smoothSolver:  Solving for Uy, Initial residual = 0.00240505, Final residual = 1.05424e-06, No Iterations 2
DICPCG:  Solving for p, Initial residual = 0.00376197, Final residual = 0.000178995, No Iterations 15
time step continuity errors : sum local = 3.13321e-09, global = 7.68521e-10, cumulative = 4.74318e-07
DICPCG:  Solving for p, Initial residual = 0.00118861, Final residual = 9.67427e-07, No Iterations 66
time step continuity errors : sum local = 1.69383e-11, global = -2.1629e-13, cumulative = 4.74318e-07
ExecutionTime = 2.96 s  ClockTime = 5 s

Time = 0.91

Courant Number mean: 0.0364252 max: 0.254529
smoothSolver:  Solving for Ux, Initial residual = 0.000570858, Final residual = 6.85935e-06, No Iterations 1
smoothSolver:  Solving for Uy, Initial residual = 0.00238038, Final residual = 1.03841e-06, No Iterations 2
DICPCG:  Solving for p, Initial residual = 0.00370445, Final residual = 0.000174596, No Iterations 15
time step continuity errors : sum local = 3.05733e-09, global = 7.58978e-10, cumulative = 4.75077e-07
DICPCG:  Solving for p, Initial residual = 0.00116706, Final residual = 9.41178e-07, No Iterations 66
time step continuity errors : sum local = 1.64847e-11, global = -1.91316e-13, cumulative = 4.75077e-07
ExecutionTime = 2.99 s  ClockTime = 5 s

Time = 0.92

Courant Number mean: 0.0364259 max: 0.254482
smoothSolver:  Solving for Ux, Initial residual = 0.000567047, Final residual = 6.74852e-06, No Iterations 1
smoothSolver:  Solving for Uy, Initial residual = 0.00235568, Final residual = 1.02285e-06, No Iterations 2
DICPCG:  Solving for p, Initial residual = 0.0036473, Final residual = 0.000170394, No Iterations 15
time step continuity errors : sum local = 2.98487e-09, global = 7.49794e-10, cumulative = 4.75826e-07
DICPCG:  Solving for p, Initial residual = 0.00114587, Final residual = 9.1482e-07, No Iterations 66
time step continuity errors : sum local = 1.60294e-11, global = -1.66005e-13, cumulative = 4.75826e-07
ExecutionTime = 3.02 s  ClockTime = 5 s

Time = 0.93

Courant Number mean: 0.0364266 max: 0.254437
smoothSolver:  Solving for Ux, Initial residual = 0.000563292, Final residual = 6.64032e-06, No Iterations 1
smoothSolver:  Solving for Uy, Initial residual = 0.00233107, Final residual = 1.00762e-06, No Iterations 2
DICPCG:  Solving for p, Initial residual = 0.00359029, Final residual = 0.000166376, No Iterations 15
time step continuity errors : sum local = 2.9158e-09, global = 7.40895e-10, cumulative = 4.76567e-07
DICPCG:  Solving for p, Initial residual = 0.00112498, Final residual = 8.88748e-07, No Iterations 66
time step continuity errors : sum local = 1.55805e-11, global = -1.41598e-13, cumulative = 4.76567e-07
ExecutionTime = 3.05 s  ClockTime = 5 s

Time = 0.94

Courant Number mean: 0.0364273 max: 0.254396
smoothSolver:  Solving for Ux, Initial residual = 0.000559606, Final residual = 6.53459e-06, No Iterations 1
smoothSolver:  Solving for Uy, Initial residual = 0.00230674, Final residual = 9.9266e-07, No Iterations 2
DICPCG:  Solving for p, Initial residual = 0.00353361, Final residual = 0.000162521, No Iterations 15
time step continuity errors : sum local = 2.84968e-09, global = 7.32269e-10, cumulative = 4.77299e-07
DICPCG:  Solving for p, Initial residual = 0.0011046, Final residual = 8.64922e-07, No Iterations 66
time step continuity errors : sum local = 1.51705e-11, global = -1.17396e-13, cumulative = 4.77299e-07
ExecutionTime = 3.08 s  ClockTime = 5 s

Time = 0.95

Courant Number mean: 0.0364281 max: 0.254358
smoothSolver:  Solving for Ux, Initial residual = 0.000555997, Final residual = 6.43126e-06, No Iterations 1
smoothSolver:  Solving for Uy, Initial residual = 0.00228241, Final residual = 9.77977e-07, No Iterations 2
DICPCG:  Solving for p, Initial residual = 0.00347731, Final residual = 0.000158896, No Iterations 15
time step continuity errors : sum local = 2.78753e-09, global = 7.23895e-10, cumulative = 4.78023e-07
DICPCG:  Solving for p, Initial residual = 0.00108472, Final residual = 8.43293e-07, No Iterations 66
time step continuity errors : sum local = 1.47985e-11, global = -9.4125e-14, cumulative = 4.78023e-07
ExecutionTime = 3.1 s  ClockTime = 5 s

Time = 0.96

Courant Number mean: 0.0364288 max: 0.254323
smoothSolver:  Solving for Ux, Initial residual = 0.000552446, Final residual = 6.33028e-06, No Iterations 1
smoothSolver:  Solving for Uy, Initial residual = 0.00225833, Final residual = 9.6357e-07, No Iterations 2
DICPCG:  Solving for p, Initial residual = 0.0034214, Final residual = 0.000155529, No Iterations 15
time step continuity errors : sum local = 2.72983e-09, global = 7.15759e-10, cumulative = 4.78739e-07
DICPCG:  Solving for p, Initial residual = 0.00106524, Final residual = 8.24668e-07, No Iterations 66
time step continuity errors : sum local = 1.4479e-11, global = -7.21219e-14, cumulative = 4.78739e-07
ExecutionTime = 3.14 s  ClockTime = 5 s

Time = 0.97

Courant Number mean: 0.0364296 max: 0.254292
smoothSolver:  Solving for Ux, Initial residual = 0.000548943, Final residual = 6.23164e-06, No Iterations 1
smoothSolver:  Solving for Uy, Initial residual = 0.00223418, Final residual = 9.49409e-07, No Iterations 2
DICPCG:  Solving for p, Initial residual = 0.00336575, Final residual = 0.000152299, No Iterations 15
time step continuity errors : sum local = 2.67447e-09, global = 7.07843e-10, cumulative = 4.79447e-07
DICPCG:  Solving for p, Initial residual = 0.00104622, Final residual = 8.08603e-07, No Iterations 66
time step continuity errors : sum local = 1.4204e-11, global = -5.16196e-14, cumulative = 4.79446e-07
ExecutionTime = 3.16 s  ClockTime = 5 s

Time = 0.98

Courant Number mean: 0.0364304 max: 0.254264
smoothSolver:  Solving for Ux, Initial residual = 0.000545502, Final residual = 6.13518e-06, No Iterations 1
smoothSolver:  Solving for Uy, Initial residual = 0.00221055, Final residual = 9.35492e-07, No Iterations 2
DICPCG:  Solving for p, Initial residual = 0.00331082, Final residual = 0.000149233, No Iterations 15
time step continuity errors : sum local = 2.62194e-09, global = 7.00134e-10, cumulative = 4.80147e-07
DICPCG:  Solving for p, Initial residual = 0.00102766, Final residual = 7.94676e-07, No Iterations 66
time step continuity errors : sum local = 1.39663e-11, global = -3.2696e-14, cumulative = 4.80147e-07
ExecutionTime = 3.19 s  ClockTime = 5 s

Time = 0.99

Courant Number mean: 0.0364313 max: 0.254239
[...]
DICPCG:  Solving for p, Initial residual = 1.46821e-05, Final residual = 9.40397e-07, No Iterations 39
time step continuity errors : sum local = 1.70622e-11, global = -2.50418e-13, cumulative = 5.27775e-07
ExecutionTime = 67.81 s  ClockTime = 106 s

Time = 24.74

Courant Number mean: 0.0363368 max: 0.257956
smoothSolver:  Solving for Ux, Initial residual = 2.35075e-06, Final residual = 2.35075e-06, No Iterations 0
smoothSolver:  Solving for Uy, Initial residual = 1.1537e-05, Final residual = 6.2496e-09, No Iterations 1
DICPCG:  Solving for p, Initial residual = 1.52252e-05, Final residual = 6.5566e-07, No Iterations 40
time step continuity errors : sum local = 1.18971e-11, global = 3.1834e-13, cumulative = 5.27775e-07
DICPCG:  Solving for p, Initial residual = 1.45334e-05, Final residual = 9.34652e-07, No Iterations 39
time step continuity errors : sum local = 1.6958e-11, global = -2.72839e-13, cumulative = 5.27775e-07
ExecutionTime = 67.84 s  ClockTime = 106 s

Time = 24.75

Courant Number mean: 0.0363368 max: 0.257956
smoothSolver:  Solving for Ux, Initial residual = 2.34404e-06, Final residual = 2.34404e-06, No Iterations 0
smoothSolver:  Solving for Uy, Initial residual = 1.15057e-05, Final residual = 6.22809e-09, No Iterations 1
DICPCG:  Solving for p, Initial residual = 1.52194e-05, Final residual = 9.70562e-07, No Iterations 39
time step continuity errors : sum local = 1.76111e-11, global = 1.93409e-13, cumulative = 5.27775e-07
DICPCG:  Solving for p, Initial residual = 1.46074e-05, Final residual = 6.77706e-07, No Iterations 40
time step continuity errors : sum local = 1.22961e-11, global = -2.95025e-13, cumulative = 5.27774e-07
ExecutionTime = 67.86 s  ClockTime = 106 s

Time = 24.76

Courant Number mean: 0.0363368 max: 0.257956
smoothSolver:  Solving for Ux, Initial residual = 2.33733e-06, Final residual = 2.33733e-06, No Iterations 0
smoothSolver:  Solving for Uy, Initial residual = 1.14732e-05, Final residual = 6.2029e-09, No Iterations 1
DICPCG:  Solving for p, Initial residual = 1.5089e-05, Final residual = 9.86656e-07, No Iterations 39
time step continuity errors : sum local = 1.79032e-11, global = 2.54443e-13, cumulative = 5.27775e-07
DICPCG:  Solving for p, Initial residual = 1.46133e-05, Final residual = 9.83274e-07, No Iterations 39
time step continuity errors : sum local = 1.78403e-11, global = -2.33018e-13, cumulative = 5.27775e-07
ExecutionTime = 67.89 s  ClockTime = 106 s

Time = 24.77

Courant Number mean: 0.0363367 max: 0.257956
smoothSolver:  Solving for Ux, Initial residual = 2.33062e-06, Final residual = 2.33062e-06, No Iterations 0
smoothSolver:  Solving for Uy, Initial residual = 1.14422e-05, Final residual = 6.20699e-09, No Iterations 1
DICPCG:  Solving for p, Initial residual = 1.53068e-05, Final residual = 9.73946e-07, No Iterations 39
time step continuity errors : sum local = 1.76726e-11, global = 1.61588e-13, cumulative = 5.27775e-07
DICPCG:  Solving for p, Initial residual = 1.45152e-05, Final residual = 9.28592e-07, No Iterations 39
time step continuity errors : sum local = 1.68482e-11, global = -2.44519e-13, cumulative = 5.27774e-07
ExecutionTime = 67.92 s  ClockTime = 106 s

Time = 24.78

Courant Number mean: 0.0363367 max: 0.257956
smoothSolver:  Solving for Ux, Initial residual = 2.32389e-06, Final residual = 2.32389e-06, No Iterations 0
smoothSolver:  Solving for Uy, Initial residual = 1.1409e-05, Final residual = 6.17932e-09, No Iterations 1
DICPCG:  Solving for p, Initial residual = 1.49336e-05, Final residual = 9.59006e-07, No Iterations 39
time step continuity errors : sum local = 1.74015e-11, global = 1.93257e-13, cumulative = 5.27775e-07
DICPCG:  Solving for p, Initial residual = 1.44853e-05, Final residual = 9.63841e-07, No Iterations 39
time step continuity errors : sum local = 1.74877e-11, global = -2.15222e-13, cumulative = 5.27774e-07
ExecutionTime = 67.95 s  ClockTime = 107 s

Time = 24.79

Courant Number mean: 0.0363367 max: 0.257956
smoothSolver:  Solving for Ux, Initial residual = 2.31718e-06, Final residual = 2.31718e-06, No Iterations 0
smoothSolver:  Solving for Uy, Initial residual = 1.13763e-05, Final residual = 6.16647e-09, No Iterations 1
DICPCG:  Solving for p, Initial residual = 1.50393e-05, Final residual = 9.66774e-07, No Iterations 39
time step continuity errors : sum local = 1.75425e-11, global = 1.58065e-13, cumulative = 5.27775e-07
DICPCG:  Solving for p, Initial residual = 1.44498e-05, Final residual = 9.75289e-07, No Iterations 39
time step continuity errors : sum local = 1.76955e-11, global = -2.00035e-13, cumulative = 5.27774e-07
ExecutionTime = 67.98 s  ClockTime = 107 s

Time = 24.8

Courant Number mean: 0.0363367 max: 0.257956
smoothSolver:  Solving for Ux, Initial residual = 2.31046e-06, Final residual = 2.31046e-06, No Iterations 0
smoothSolver:  Solving for Uy, Initial residual = 1.1343e-05, Final residual = 6.14954e-09, No Iterations 1
DICPCG:  Solving for p, Initial residual = 1.49326e-05, Final residual = 9.52287e-07, No Iterations 39
time step continuity errors : sum local = 1.72797e-11, global = 1.79935e-13, cumulative = 5.27775e-07
DICPCG:  Solving for p, Initial residual = 1.43996e-05, Final residual = 9.22383e-07, No Iterations 39
time step continuity errors : sum local = 1.67356e-11, global = -2.38247e-13, cumulative = 5.27774e-07
ExecutionTime = 68.01 s  ClockTime = 107 s

Time = 24.81

Courant Number mean: 0.0363367 max: 0.257956
smoothSolver:  Solving for Ux, Initial residual = 2.30373e-06, Final residual = 2.30373e-06, No Iterations 0
smoothSolver:  Solving for Uy, Initial residual = 1.13093e-05, Final residual = 6.12851e-09, No Iterations 1
DICPCG:  Solving for p, Initial residual = 1.48929e-05, Final residual = 9.67147e-07, No Iterations 39
time step continuity errors : sum local = 1.75493e-11, global = 2.02531e-13, cumulative = 5.27775e-07
DICPCG:  Solving for p, Initial residual = 1.43641e-05, Final residual = 9.81818e-07, No Iterations 39
time step continuity errors : sum local = 1.7814e-11, global = -2.05557e-13, cumulative = 5.27774e-07
ExecutionTime = 68.03 s  ClockTime = 107 s

Time = 24.82

Courant Number mean: 0.0363367 max: 0.257956
smoothSolver:  Solving for Ux, Initial residual = 2.29701e-06, Final residual = 2.29701e-06, No Iterations 0
smoothSolver:  Solving for Uy, Initial residual = 1.12753e-05, Final residual = 6.11584e-09, No Iterations 1
DICPCG:  Solving for p, Initial residual = 1.48575e-05, Final residual = 9.68421e-07, No Iterations 39
time step continuity errors : sum local = 1.75725e-11, global = 1.68726e-13, cumulative = 5.27774e-07
DICPCG:  Solving for p, Initial residual = 1.43295e-05, Final residual = 9.88385e-07, No Iterations 39
time step continuity errors : sum local = 1.79332e-11, global = -2.07177e-13, cumulative = 5.27774e-07
ExecutionTime = 68.06 s  ClockTime = 107 s

Time = 24.83

Courant Number mean: 0.0363366 max: 0.257956
smoothSolver:  Solving for Ux, Initial residual = 2.29032e-06, Final residual = 2.29032e-06, No Iterations 0
smoothSolver:  Solving for Uy, Initial residual = 1.12409e-05, Final residual = 6.09801e-09, No Iterations 1
DICPCG:  Solving for p, Initial residual = 1.48195e-05, Final residual = 9.36772e-07, No Iterations 39
time step continuity errors : sum local = 1.69982e-11, global = 1.96786e-13, cumulative = 5.27774e-07
DICPCG:  Solving for p, Initial residual = 1.42834e-05, Final residual = 6.428e-07, No Iterations 40
time step continuity errors : sum local = 1.1663e-11, global = -2.97209e-13, cumulative = 5.27774e-07
ExecutionTime = 68.09 s  ClockTime = 107 s

Time = 24.84

Courant Number mean: 0.0363366 max: 0.257956
smoothSolver:  Solving for Ux, Initial residual = 2.28391e-06, Final residual = 2.28391e-06, No Iterations 0
smoothSolver:  Solving for Uy, Initial residual = 1.12057e-05, Final residual = 6.06847e-09, No Iterations 1
DICPCG:  Solving for p, Initial residual = 1.49073e-05, Final residual = 9.73953e-07, No Iterations 39
time step continuity errors : sum local = 1.76729e-11, global = 2.3693e-13, cumulative = 5.27774e-07
DICPCG:  Solving for p, Initial residual = 1.42456e-05, Final residual = 9.67482e-07, No Iterations 39
time step continuity errors : sum local = 1.7554e-11, global = -2.19072e-13, cumulative = 5.27774e-07
ExecutionTime = 68.12 s  ClockTime = 107 s

Time = 24.85

Courant Number mean: 0.0363366 max: 0.257956
smoothSolver:  Solving for Ux, Initial residual = 2.27748e-06, Final residual = 2.27748e-06, No Iterations 0
smoothSolver:  Solving for Uy, Initial residual = 1.11717e-05, Final residual = 6.07437e-09, No Iterations 1
DICPCG:  Solving for p, Initial residual = 1.49425e-05, Final residual = 9.40906e-07, No Iterations 39
time step continuity errors : sum local = 1.70733e-11, global = 1.55281e-13, cumulative = 5.27774e-07
DICPCG:  Solving for p, Initial residual = 1.41849e-05, Final residual = 9.8049e-07, No Iterations 39
time step continuity errors : sum local = 1.77901e-11, global = -2.0504e-13, cumulative = 5.27774e-07
ExecutionTime = 68.15 s  ClockTime = 107 s

Time = 24.86

Courant Number mean: 0.0363366 max: 0.257956
smoothSolver:  Solving for Ux, Initial residual = 2.27105e-06, Final residual = 2.27105e-06, No Iterations 0
smoothSolver:  Solving for Uy, Initial residual = 1.11355e-05, Final residual = 6.04731e-09, No Iterations 1
DICPCG:  Solving for p, Initial residual = 1.4708e-05, Final residual = 9.65087e-07, No Iterations 39
time step continuity errors : sum local = 1.75121e-11, global = 1.72309e-13, cumulative = 5.27774e-07
DICPCG:  Solving for p, Initial residual = 1.41593e-05, Final residual = 9.36405e-07, No Iterations 39
time step continuity errors : sum local = 1.69903e-11, global = -2.33415e-13, cumulative = 5.27774e-07
ExecutionTime = 68.17 s  ClockTime = 107 s

Time = 24.87

Courant Number mean: 0.0363366 max: 0.257956
smoothSolver:  Solving for Ux, Initial residual = 2.26463e-06, Final residual = 2.26463e-06, No Iterations 0
smoothSolver:  Solving for Uy, Initial residual = 1.10999e-05, Final residual = 6.02969e-09, No Iterations 1
DICPCG:  Solving for p, Initial residual = 1.45998e-05, Final residual = 8.89429e-07, No Iterations 39
time step continuity errors : sum local = 1.61393e-11, global = 2.26413e-13, cumulative = 5.27774e-07
DICPCG:  Solving for p, Initial residual = 1.40935e-05, Final residual = 9.80627e-07, No Iterations 39
time step continuity errors : sum local = 1.77927e-11, global = -2.11968e-13, cumulative = 5.27774e-07
ExecutionTime = 68.2 s  ClockTime = 107 s

Time = 24.88

Courant Number mean: 0.0363365 max: 0.257956
smoothSolver:  Solving for Ux, Initial residual = 2.2582e-06, Final residual = 2.2582e-06, No Iterations 0
smoothSolver:  Solving for Uy, Initial residual = 1.10638e-05, Final residual = 6.01383e-09, No Iterations 1
DICPCG:  Solving for p, Initial residual = 1.46857e-05, Final residual = 9.40832e-07, No Iterations 39
time step continuity errors : sum local = 1.70721e-11, global = 1.60297e-13, cumulative = 5.27774e-07
DICPCG:  Solving for p, Initial residual = 1.40718e-05, Final residual = 6.32175e-07, No Iterations 40
time step continuity errors : sum local = 1.14703e-11, global = -2.95332e-13, cumulative = 5.27774e-07
ExecutionTime = 68.23 s  ClockTime = 107 s

Time = 24.89

Courant Number mean: 0.0363365 max: 0.257956
smoothSolver:  Solving for Ux, Initial residual = 2.25178e-06, Final residual = 2.25178e-06, No Iterations 0
smoothSolver:  Solving for Uy, Initial residual = 1.1029e-05, Final residual = 5.98411e-09, No Iterations 1
DICPCG:  Solving for p, Initial residual = 1.46695e-05, Final residual = 9.29263e-07, No Iterations 39
time step continuity errors : sum local = 1.68622e-11, global = 2.31488e-13, cumulative = 5.27774e-07
DICPCG:  Solving for p, Initial residual = 1.40415e-05, Final residual = 9.78573e-07, No Iterations 39
time step continuity errors : sum local = 1.77555e-11, global = -2.04691e-13, cumulative = 5.27774e-07
ExecutionTime = 68.26 s  ClockTime = 107 s

Time = 24.9

Courant Number mean: 0.0363365 max: 0.257956
smoothSolver:  Solving for Ux, Initial residual = 2.24535e-06, Final residual = 2.24535e-06, No Iterations 0
smoothSolver:  Solving for Uy, Initial residual = 1.0996e-05, Final residual = 5.98855e-09, No Iterations 1
DICPCG:  Solving for p, Initial residual = 1.47856e-05, Final residual = 8.81684e-07, No Iterations 39
time step continuity errors : sum local = 1.59989e-11, global = 1.79267e-13, cumulative = 5.27774e-07
DICPCG:  Solving for p, Initial residual = 1.39832e-05, Final residual = 9.6202e-07, No Iterations 39
time step continuity errors : sum local = 1.74552e-11, global = -2.10492e-13, cumulative = 5.27774e-07
ExecutionTime = 68.29 s  ClockTime = 107 s

Time = 24.91

Courant Number mean: 0.0363365 max: 0.257956
smoothSolver:  Solving for Ux, Initial residual = 2.2389e-06, Final residual = 2.2389e-06, No Iterations 0
smoothSolver:  Solving for Uy, Initial residual = 1.0961e-05, Final residual = 5.96167e-09, No Iterations 1
DICPCG:  Solving for p, Initial residual = 1.45698e-05, Final residual = 9.47858e-07, No Iterations 39
time step continuity errors : sum local = 1.71997e-11, global = 1.97607e-13, cumulative = 5.27774e-07
DICPCG:  Solving for p, Initial residual = 1.39641e-05, Final residual = 9.45104e-07, No Iterations 39
time step continuity errors : sum local = 1.71483e-11, global = -2.12736e-13, cumulative = 5.27774e-07
ExecutionTime = 68.32 s  ClockTime = 107 s

Time = 24.92

Courant Number mean: 0.0363365 max: 0.257956
smoothSolver:  Solving for Ux, Initial residual = 2.23245e-06, Final residual = 2.23245e-06, No Iterations 0
smoothSolver:  Solving for Uy, Initial residual = 1.09264e-05, Final residual = 5.94596e-09, No Iterations 1
DICPCG:  Solving for p, Initial residual = 1.45024e-05, Final residual = 9.21851e-07, No Iterations 39
time step continuity errors : sum local = 1.67278e-11, global = 1.77566e-13, cumulative = 5.27774e-07
DICPCG:  Solving for p, Initial residual = 1.39188e-05, Final residual = 6.26334e-07, No Iterations 40
time step continuity errors : sum local = 1.13644e-11, global = -2.95378e-13, cumulative = 5.27774e-07
ExecutionTime = 68.34 s  ClockTime = 107 s

Time = 24.93

Courant Number mean: 0.0363365 max: 0.257956
smoothSolver:  Solving for Ux, Initial residual = 2.22601e-06, Final residual = 2.22601e-06, No Iterations 0
smoothSolver:  Solving for Uy, Initial residual = 1.0893e-05, Final residual = 5.91779e-09, No Iterations 1
DICPCG:  Solving for p, Initial residual = 1.44872e-05, Final residual = 9.3979e-07, No Iterations 39
time step continuity errors : sum local = 1.70534e-11, global = 2.33271e-13, cumulative = 5.27774e-07
DICPCG:  Solving for p, Initial residual = 1.38982e-05, Final residual = 9.50168e-07, No Iterations 39
time step continuity errors : sum local = 1.72403e-11, global = -2.12408e-13, cumulative = 5.27774e-07
ExecutionTime = 68.37 s  ClockTime = 107 s

Time = 24.94

Courant Number mean: 0.0363364 max: 0.257955
smoothSolver:  Solving for Ux, Initial residual = 2.21974e-06, Final residual = 2.21974e-06, No Iterations 0
smoothSolver:  Solving for Uy, Initial residual = 1.08645e-05, Final residual = 5.92167e-09, No Iterations 1
DICPCG:  Solving for p, Initial residual = 1.45848e-05, Final residual = 9.04978e-07, No Iterations 39
time step continuity errors : sum local = 1.64217e-11, global = 1.74354e-13, cumulative = 5.27774e-07
DICPCG:  Solving for p, Initial residual = 1.38324e-05, Final residual = 9.47979e-07, No Iterations 39
time step continuity errors : sum local = 1.72006e-11, global = -2.06073e-13, cumulative = 5.27774e-07
ExecutionTime = 68.4 s  ClockTime = 107 s

Time = 24.95

Courant Number mean: 0.0363364 max: 0.257955
smoothSolver:  Solving for Ux, Initial residual = 2.21366e-06, Final residual = 2.21366e-06, No Iterations 0
smoothSolver:  Solving for Uy, Initial residual = 1.08356e-05, Final residual = 5.89502e-09, No Iterations 1
DICPCG:  Solving for p, Initial residual = 1.43398e-05, Final residual = 9.36848e-07, No Iterations 39
time step continuity errors : sum local = 1.7e-11, global = 1.82798e-13, cumulative = 5.27774e-07
DICPCG:  Solving for p, Initial residual = 1.38285e-05, Final residual = 8.81231e-07, No Iterations 39
time step continuity errors : sum local = 1.59895e-11, global = -2.34204e-13, cumulative = 5.27774e-07
ExecutionTime = 68.43 s  ClockTime = 107 s

Time = 24.96

Courant Number mean: 0.0363364 max: 0.257955
smoothSolver:  Solving for Ux, Initial residual = 2.20759e-06, Final residual = 2.20759e-06, No Iterations 0
smoothSolver:  Solving for Uy, Initial residual = 1.08082e-05, Final residual = 5.87732e-09, No Iterations 1
DICPCG:  Solving for p, Initial residual = 1.42565e-05, Final residual = 9.33629e-07, No Iterations 39
time step continuity errors : sum local = 1.69417e-11, global = 1.83877e-13, cumulative = 5.27774e-07
DICPCG:  Solving for p, Initial residual = 1.37587e-05, Final residual = 9.24938e-07, No Iterations 39
time step continuity errors : sum local = 1.67826e-11, global = -2.06609e-13, cumulative = 5.27774e-07
ExecutionTime = 68.45 s  ClockTime = 107 s

Time = 24.97

Courant Number mean: 0.0363364 max: 0.257955
smoothSolver:  Solving for Ux, Initial residual = 2.2015e-06, Final residual = 2.2015e-06, No Iterations 0
smoothSolver:  Solving for Uy, Initial residual = 1.07805e-05, Final residual = 5.86136e-09, No Iterations 1
DICPCG:  Solving for p, Initial residual = 1.42933e-05, Final residual = 9.23111e-07, No Iterations 39
time step continuity errors : sum local = 1.67508e-11, global = 1.66732e-13, cumulative = 5.27774e-07
DICPCG:  Solving for p, Initial residual = 1.37162e-05, Final residual = 9.33597e-07, No Iterations 39
time step continuity errors : sum local = 1.69397e-11, global = -1.98303e-13, cumulative = 5.27774e-07
ExecutionTime = 68.48 s  ClockTime = 107 s

Time = 24.98

Courant Number mean: 0.0363364 max: 0.257955
smoothSolver:  Solving for Ux, Initial residual = 2.19542e-06, Final residual = 2.19542e-06, No Iterations 0
smoothSolver:  Solving for Uy, Initial residual = 1.07526e-05, Final residual = 5.84581e-09, No Iterations 1
DICPCG:  Solving for p, Initial residual = 1.42788e-05, Final residual = 8.45246e-07, No Iterations 39
time step continuity errors : sum local = 1.53379e-11, global = 2.23821e-13, cumulative = 5.27774e-07
DICPCG:  Solving for p, Initial residual = 1.36906e-05, Final residual = 9.71185e-07, No Iterations 39
time step continuity errors : sum local = 1.76218e-11, global = -1.97959e-13, cumulative = 5.27774e-07
ExecutionTime = 68.51 s  ClockTime = 107 s

Time = 24.99

Courant Number mean: 0.0363364 max: 0.257955
smoothSolver:  Solving for Ux, Initial residual = 2.18932e-06, Final residual = 2.18932e-06, No Iterations 0
smoothSolver:  Solving for Uy, Initial residual = 1.07241e-05, Final residual = 5.82754e-09, No Iterations 1
DICPCG:  Solving for p, Initial residual = 1.4244e-05, Final residual = 9.09013e-07, No Iterations 39
time step continuity errors : sum local = 1.64951e-11, global = 1.69153e-13, cumulative = 5.27774e-07
DICPCG:  Solving for p, Initial residual = 1.36455e-05, Final residual = 9.09377e-07, No Iterations 39
time step continuity errors : sum local = 1.65003e-11, global = -2.21598e-13, cumulative = 5.27774e-07
ExecutionTime = 68.53 s  ClockTime = 107 s

Time = 25

Courant Number mean: 0.0363363 max: 0.257955
smoothSolver:  Solving for Ux, Initial residual = 2.18325e-06, Final residual = 2.18325e-06, No Iterations 0
smoothSolver:  Solving for Uy, Initial residual = 1.06972e-05, Final residual = 5.81035e-09, No Iterations 1
DICPCG:  Solving for p, Initial residual = 1.41238e-05, Final residual = 8.91974e-07, No Iterations 39
time step continuity errors : sum local = 1.61859e-11, global = 1.94745e-13, cumulative = 5.27774e-07
DICPCG:  Solving for p, Initial residual = 1.35953e-05, Final residual = 9.48249e-07, No Iterations 39
time step continuity errors : sum local = 1.72057e-11, global = -1.92044e-13, cumulative = 5.27774e-07
ExecutionTime = 68.62 s  ClockTime = 108 s

End

