/work/05124/newman/stampede2/of2/work_here/re_20_mesh_2
Tue Apr  2 16:55:19 CDT 2019
/*---------------------------------------------------------------------------*\
  =========                 |
  \\      /  F ield         | OpenFOAM: The Open Source CFD Toolbox
   \\    /   O peration     | Website:  https://openfoam.org
    \\  /    A nd           | Version:  6.0
     \\/     M anipulation  |
\*---------------------------------------------------------------------------*/
Build  : 6.0
Exec   : blockMesh
Date   : Apr 02 2019
Time   : 16:55:26
Host   : "c402-002.stampede2.tacc.utexas.edu"
PID    : 168872
I/O    : uncollated
Case   : /work/05124/newman/stampede2/of2/work_here/re_20_mesh_2
nProcs : 1
sigFpe : Enabling floating point exception trapping (FOAM_SIGFPE).
fileModificationChecking : Monitoring run-time modified files using timeStampMaster (fileModificationSkew 10)
allowSystemOperations : Allowing user-supplied system call operations

// * * * * * * * * * * * * * * * * * * * * * * * * * * * * * * * * * * * * * //
Create time

Deleting polyMesh directory
    "/work/05124/newman/stampede2/of2/work_here/re_20_mesh_2/constant/polyMesh"
Creating block mesh from
    "/work/05124/newman/stampede2/of2/work_here/re_20_mesh_2/system/blockMeshDict"
Creating block edges
No non-planar block faces defined
Creating topology blocks
Creating topology patches

Creating block mesh topology
--> FOAM Warning : 
    From function Foam::polyMesh::polyMesh(const Foam::IOobject &, const Foam::Xfer<Foam::Field<Foam::Vector<double>>> &, const Foam::List<Foam::cellShape> &, const Foam::List<Foam::List<Foam::face>> &, const Foam::List<Foam::word> &, const Foam::PtrList<Foam::dictionary> &, const Foam::word &, const Foam::word &, bool)
    in file meshes/polyMesh/polyMeshFromShapeMesh.C at line 871
    Found 40 undefined faces in mesh; adding to default patch.

Check topology

	Basic statistics
		Number of internal faces : 28
		Number of boundary faces : 64
		Number of defined boundary faces : 64
		Number of undefined boundary faces : 0
	Checking patch -> block consistency

Creating block offsets
Creating merge list .

Creating polyMesh from blockMesh
Creating points with scale 1
    Block 0 cell size :
        i : 0.025 .. 0.025
        j : 0.0196337 .. 0.0196337
        k : 0.1 .. 0.1

    Block 1 cell size :
        i : 0.025 .. 0.025
        j : 0.0196337 .. 0.0196337
        k : 0.1 .. 0.1

    Block 2 cell size :
        i : 0.025 .. 0.025
        j : 0.0196337 .. 0.0196337
        k : 0.1 .. 0.1

    Block 3 cell size :
        i : 0.025 .. 0.025
        j : 0.0196337 .. 0.0196337
        k : 0.1 .. 0.1

    Block 4 cell size :
        i : 0.025 .. 0.025
        j : 0.0196337 .. 0.0196337
        k : 0.1 .. 0.1

    Block 5 cell size :
        i : 0.025 .. 0.025
        j : 0.0196337 .. 0.0196337
        k : 0.1 .. 0.1

    Block 6 cell size :
        i : 0.025 .. 0.025
        j : 0.0196337 .. 0.0196337
        k : 0.1 .. 0.1

    Block 7 cell size :
        i : 0.025 .. 0.025
        j : 0.0196337 .. 0.0196337
        k : 0.1 .. 0.1

    Block 8 cell size :
        i : 0.55 .. 0.55
        j : 0.0392674 .. 0.0392674
        k : 0.1 .. 0.1

    Block 9 cell size :
        i : 0.564645 .. 0.564645
        j : 0.214645 .. 0.214645
        k : 0.1 .. 0.1

    Block 10 cell size :
        i : 0.0392674 .. 0.0392674
        j : 0.2 .. 0.2
        k : 0.1 .. 0.1

    Block 11 cell size :
        i : 0.0392674 .. 0.0392674
        j : 0.214645 .. 0.214645
        k : 0.1 .. 0.1

    Block 12 cell size :
        i : 0.114645 .. 0.114645
        j : 0.214645 .. 0.214645
        k : 0.1 .. 0.1

    Block 13 cell size :
        i : 0.1 .. 0.1
        j : 0.0353554 .. 0.0353554
        k : 0.1 .. 0.1

    Block 14 cell size :
        i : 0.114645 .. 0.114645
        j : 0.0353554 .. 0.0353554
        k : 0.1 .. 0.1

    Block 15 cell size :
        i : 0.114645 .. 0.114645
        j : 0.214645 .. 0.214645
        k : 0.1 .. 0.1

    Block 16 cell size :
        i : 0.0353554 .. 0.0353554
        j : 0.214645 .. 0.214645
        k : 0.1 .. 0.1

    Block 17 cell size :
        i : 0.0353554 .. 0.0353554
        j : 0.2 .. 0.2
        k : 0.1 .. 0.1

    Block 18 cell size :
        i : 0.564645 .. 0.564645
        j : 0.214645 .. 0.214645
        k : 0.1 .. 0.1

    Block 19 cell size :
        i : 0.564645 .. 0.564645
        j : 0.0392674 .. 0.0392674
        k : 0.1 .. 0.1

Creating cells
Creating patches

Writing polyMesh
----------------
Mesh Information
----------------
  boundingBox: (-3 -5 -0.05) (12 5 0.05)
  nPoints: 16480
  nCells: 8000
  nFaces: 32240
  nInternalFaces: 15760
----------------
Patches
----------------
  patch 0 (start: 15760 size: 80) name: inlet
  patch 1 (start: 15840 size: 80) name: outlet
  patch 2 (start: 15920 size: 160) name: cylinder
  patch 3 (start: 16080 size: 80) name: top
  patch 4 (start: 16160 size: 80) name: bottom
  patch 5 (start: 16240 size: 16000) name: defaultFaces

End

/*---------------------------------------------------------------------------*\
  =========                 |
  \\      /  F ield         | OpenFOAM: The Open Source CFD Toolbox
   \\    /   O peration     | Website:  https://openfoam.org
    \\  /    A nd           | Version:  6.0
     \\/     M anipulation  |
\*---------------------------------------------------------------------------*/
Build  : 6.0
Exec   : checkMesh
Date   : Apr 02 2019
Time   : 16:55:27
Host   : "c402-002.stampede2.tacc.utexas.edu"
PID    : 168884
I/O    : uncollated
Case   : /work/05124/newman/stampede2/of2/work_here/re_20_mesh_2
nProcs : 1
sigFpe : Enabling floating point exception trapping (FOAM_SIGFPE).
fileModificationChecking : Monitoring run-time modified files using timeStampMaster (fileModificationSkew 10)
allowSystemOperations : Allowing user-supplied system call operations

// * * * * * * * * * * * * * * * * * * * * * * * * * * * * * * * * * * * * * //
Create time

Create polyMesh for time = 0

Time = 0

Mesh stats
    points:           16480
    internal points:  0
    faces:            32240
    internal faces:   15760
    cells:            8000
    faces per cell:   6
    boundary patches: 6
    point zones:      0
    face zones:       0
    cell zones:       0

Overall number of cells of each type:
    hexahedra:     8000
    prisms:        0
    wedges:        0
    pyramids:      0
    tet wedges:    0
    tetrahedra:    0
    polyhedra:     0

Checking topology...
    Boundary definition OK.
    Cell to face addressing OK.
    Point usage OK.
    Upper triangular ordering OK.
    Face vertices OK.
    Number of regions: 1 (OK).

Checking patch topology for multiply connected surfaces...
    Patch               Faces    Points   Surface topology                  
    inlet               80       162      ok (non-closed singly connected)  
    outlet              80       162      ok (non-closed singly connected)  
    cylinder            160      320      ok (non-closed singly connected)  
    top                 80       162      ok (non-closed singly connected)  
    bottom              80       162      ok (non-closed singly connected)  
    defaultFaces        16000    16480    ok (non-closed singly connected)  

Checking geometry...
    Overall domain bounding box (-3 -5 -0.05) (12 5 0.05)
    Mesh has 2 geometric (non-empty/wedge) directions (1 1 0)
    Mesh has 2 solution (non-empty) directions (1 1 0)
    All edges aligned with or perpendicular to non-empty directions.
    Boundary openness (3.42668e-20 6.99044e-18 -2.23077e-17) OK.
    Max cell openness = 2.03105e-16 OK.
    Max aspect ratio = 20.6047 OK.
    Minimum face area = 0.000503016. Maximum face area = 0.121198.  Face area magnitudes OK.
    Min volume = 5.03016e-05. Max volume = 0.0121198.  Total volume = 14.9215.  Cell volumes OK.
    Mesh non-orthogonality Max: 42.1963 average: 9.83616
    Non-orthogonality check OK.
    Face pyramids OK.
    Max skewness = 0.468666 OK.
    Coupled point location match (average 0) OK.

Mesh OK.

End

/*---------------------------------------------------------------------------*\
  =========                 |
  \\      /  F ield         | OpenFOAM: The Open Source CFD Toolbox
   \\    /   O peration     | Website:  https://openfoam.org
    \\  /    A nd           | Version:  6.0
     \\/     M anipulation  |
\*---------------------------------------------------------------------------*/
Build  : 6.0
Exec   : icoFoam
Date   : Apr 02 2019
Time   : 16:55:29
Host   : "c402-002.stampede2.tacc.utexas.edu"
PID    : 168941
I/O    : uncollated
Case   : /work/05124/newman/stampede2/of2/work_here/re_20_mesh_2
nProcs : 1
sigFpe : Enabling floating point exception trapping (FOAM_SIGFPE).
fileModificationChecking : Monitoring run-time modified files using timeStampMaster (fileModificationSkew 10)
allowSystemOperations : Allowing user-supplied system call operations

// * * * * * * * * * * * * * * * * * * * * * * * * * * * * * * * * * * * * * //
Create time

Create mesh for time = 0

Reading transportProperties

Reading field p

Reading field U

Reading/calculating face flux field phi


Starting time loop

Reading set description:
    simple_line

Time = 0.01

Courant Number mean: 0.0570432 max: 0.620055
smoothSolver:  Solving for Ux, Initial residual = 1, Final residual = 6.55945e-06, No Iterations 11
smoothSolver:  Solving for Uy, Initial residual = 0, Final residual = 0, No Iterations 0
DICPCG:  Solving for p, Initial residual = 1, Final residual = 0.048239, No Iterations 79
time step continuity errors : sum local = 6.70891e-06, global = 9.05429e-08, cumulative = 9.05429e-08
DICPCG:  Solving for p, Initial residual = 0.223292, Final residual = 9.69861e-07, No Iterations 149
time step continuity errors : sum local = 9.3671e-10, global = 2.06697e-12, cumulative = 9.0545e-08
ExecutionTime = 1.16 s  ClockTime = 1 s

Time = 0.02

Courant Number mean: 0.0586155 max: 0.718023
smoothSolver:  Solving for Ux, Initial residual = 0.180303, Final residual = 9.74183e-06, No Iterations 8
smoothSolver:  Solving for Uy, Initial residual = 0.32251, Final residual = 6.40617e-06, No Iterations 9
DICPCG:  Solving for p, Initial residual = 0.268421, Final residual = 0.0131522, No Iterations 79
time step continuity errors : sum local = 1.08182e-05, global = -8.15511e-08, cumulative = 8.9939e-09
DICPCG:  Solving for p, Initial residual = 0.381707, Final residual = 8.52491e-07, No Iterations 150
time step continuity errors : sum local = 4.69086e-10, global = 1.75912e-12, cumulative = 8.99566e-09
ExecutionTime = 1.31 s  ClockTime = 1 s

Time = 0.03

Courant Number mean: 0.0586561 max: 0.759195
smoothSolver:  Solving for Ux, Initial residual = 0.0376393, Final residual = 4.06317e-06, No Iterations 7
smoothSolver:  Solving for Uy, Initial residual = 0.0687984, Final residual = 3.98613e-06, No Iterations 7
DICPCG:  Solving for p, Initial residual = 0.629226, Final residual = 0.030343, No Iterations 64
time step continuity errors : sum local = 4.7636e-06, global = -6.53574e-08, cumulative = -5.63618e-08
DICPCG:  Solving for p, Initial residual = 0.426864, Final residual = 9.19135e-07, No Iterations 148
time step continuity errors : sum local = 1.27944e-10, global = 6.67408e-13, cumulative = -5.63611e-08
ExecutionTime = 1.45 s  ClockTime = 1 s

Time = 0.04

Courant Number mean: 0.0586191 max: 0.725015
smoothSolver:  Solving for Ux, Initial residual = 0.0143916, Final residual = 6.73937e-06, No Iterations 6
smoothSolver:  Solving for Uy, Initial residual = 0.0272534, Final residual = 5.21517e-06, No Iterations 6
DICPCG:  Solving for p, Initial residual = 0.358229, Final residual = 0.0166921, No Iterations 36
time step continuity errors : sum local = 9.658e-07, global = 2.18155e-07, cumulative = 1.61794e-07
DICPCG:  Solving for p, Initial residual = 0.269192, Final residual = 9.37355e-07, No Iterations 142
time step continuity errors : sum local = 4.49064e-11, global = -2.57599e-14, cumulative = 1.61794e-07
ExecutionTime = 1.56 s  ClockTime = 1 s

Time = 0.05

Courant Number mean: 0.0585958 max: 0.703621
smoothSolver:  Solving for Ux, Initial residual = 0.00742383, Final residual = 5.45133e-06, No Iterations 6
smoothSolver:  Solving for Uy, Initial residual = 0.0144182, Final residual = 5.11133e-06, No Iterations 6
DICPCG:  Solving for p, Initial residual = 0.150498, Final residual = 0.00700297, No Iterations 31
time step continuity errors : sum local = 2.16032e-07, global = -1.40133e-08, cumulative = 1.47781e-07
DICPCG:  Solving for p, Initial residual = 0.0896765, Final residual = 9.80765e-07, No Iterations 140
time step continuity errors : sum local = 2.86821e-11, global = -2.28808e-13, cumulative = 1.47781e-07
ExecutionTime = 1.68 s  ClockTime = 2 s

Time = 0.06

Courant Number mean: 0.0585717 max: 0.687002
smoothSolver:  Solving for Ux, Initial residual = 0.00627017, Final residual = 4.35801e-06, No Iterations 6
smoothSolver:  Solving for Uy, Initial residual = 0.0126847, Final residual = 4.53288e-06, No Iterations 6
DICPCG:  Solving for p, Initial residual = 0.1114, Final residual = 0.00530185, No Iterations 67
time step continuity errors : sum local = 1.49634e-07, global = -2.05281e-09, cumulative = 1.45728e-07
DICPCG:  Solving for p, Initial residual = 0.072552, Final residual = 8.54048e-07, No Iterations 138
time step continuity errors : sum local = 2.00833e-11, global = -1.81644e-13, cumulative = 1.45728e-07
ExecutionTime = 1.8 s  ClockTime = 2 s

Time = 0.07

Courant Number mean: 0.0585497 max: 0.669382
smoothSolver:  Solving for Ux, Initial residual = 0.00495789, Final residual = 3.64325e-06, No Iterations 6
smoothSolver:  Solving for Uy, Initial residual = 0.0109958, Final residual = 4.12467e-06, No Iterations 6
DICPCG:  Solving for p, Initial residual = 0.0875845, Final residual = 0.00431474, No Iterations 37
time step continuity errors : sum local = 1.03884e-07, global = 2.52017e-08, cumulative = 1.70929e-07
DICPCG:  Solving for p, Initial residual = 0.050388, Final residual = 9.53753e-07, No Iterations 135
time step continuity errors : sum local = 2.23488e-11, global = 1.02198e-13, cumulative = 1.70929e-07
ExecutionTime = 1.91 s  ClockTime = 2 s

Time = 0.08

Courant Number mean: 0.0585293 max: 0.659101
smoothSolver:  Solving for Ux, Initial residual = 0.00413164, Final residual = 8.65214e-06, No Iterations 5
smoothSolver:  Solving for Uy, Initial residual = 0.010004, Final residual = 3.77226e-06, No Iterations 6
DICPCG:  Solving for p, Initial residual = 0.0654117, Final residual = 0.0030991, No Iterations 37
time step continuity errors : sum local = 6.65609e-08, global = 1.39345e-08, cumulative = 1.84864e-07
DICPCG:  Solving for p, Initial residual = 0.0366763, Final residual = 8.974e-07, No Iterations 134
time step continuity errors : sum local = 1.89295e-11, global = 1.17008e-13, cumulative = 1.84864e-07
ExecutionTime = 2.03 s  ClockTime = 2 s

Time = 0.09

Courant Number mean: 0.0585105 max: 0.648353
smoothSolver:  Solving for Ux, Initial residual = 0.00355273, Final residual = 7.50847e-06, No Iterations 5
smoothSolver:  Solving for Uy, Initial residual = 0.00917694, Final residual = 9.98684e-06, No Iterations 5
DICPCG:  Solving for p, Initial residual = 0.0519131, Final residual = 0.00254464, No Iterations 37
time step continuity errors : sum local = 5.06509e-08, global = 1.02784e-08, cumulative = 1.95142e-07
DICPCG:  Solving for p, Initial residual = 0.029539, Final residual = 7.998e-07, No Iterations 134
time step continuity errors : sum local = 1.57051e-11, global = 9.8341e-14, cumulative = 1.95142e-07
ExecutionTime = 2.14 s  ClockTime = 2 s

Time = 0.1

Courant Number mean: 0.0584931 max: 0.637286
smoothSolver:  Solving for Ux, Initial residual = 0.00312645, Final residual = 6.60956e-06, No Iterations 5
smoothSolver:  Solving for Uy, Initial residual = 0.00850849, Final residual = 9.21272e-06, No Iterations 5
DICPCG:  Solving for p, Initial residual = 0.0442108, Final residual = 0.00220146, No Iterations 37
time step continuity errors : sum local = 4.12808e-08, global = 7.9007e-09, cumulative = 2.03043e-07
DICPCG:  Solving for p, Initial residual = 0.0260413, Final residual = 7.60408e-07, No Iterations 134
time step continuity errors : sum local = 1.41032e-11, global = 9.99991e-14, cumulative = 2.03043e-07
ExecutionTime = 2.24 s  ClockTime = 2 s

Time = 0.11

Courant Number mean: 0.058477 max: 0.629078
smoothSolver:  Solving for Ux, Initial residual = 0.00279607, Final residual = 5.88433e-06, No Iterations 5
smoothSolver:  Solving for Uy, Initial residual = 0.00794768, Final residual = 8.54578e-06, No Iterations 5
DICPCG:  Solving for p, Initial residual = 0.0395674, Final residual = 0.00195952, No Iterations 37
time step continuity errors : sum local = 3.49996e-08, global = 6.35506e-09, cumulative = 2.09398e-07
DICPCG:  Solving for p, Initial residual = 0.0240046, Final residual = 9.82653e-07, No Iterations 133
time step continuity errors : sum local = 1.73826e-11, global = 1.20041e-13, cumulative = 2.09398e-07
ExecutionTime = 2.36 s  ClockTime = 2 s

Time = 0.12

Courant Number mean: 0.058462 max: 0.621833
smoothSolver:  Solving for Ux, Initial residual = 0.00253381, Final residual = 5.28812e-06, No Iterations 5
smoothSolver:  Solving for Uy, Initial residual = 0.00747768, Final residual = 7.97003e-06, No Iterations 5
DICPCG:  Solving for p, Initial residual = 0.0359342, Final residual = 0.00176515, No Iterations 37
time step continuity errors : sum local = 3.02419e-08, global = 5.26397e-09, cumulative = 2.14662e-07
DICPCG:  Solving for p, Initial residual = 0.0224551, Final residual = 9.59771e-07, No Iterations 133
time step continuity errors : sum local = 1.62981e-11, global = 1.20696e-13, cumulative = 2.14663e-07
ExecutionTime = 2.46 s  ClockTime = 2 s

Time = 0.13

Courant Number mean: 0.0584481 max: 0.614539
smoothSolver:  Solving for Ux, Initial residual = 0.00231869, Final residual = 4.78878e-06, No Iterations 5
smoothSolver:  Solving for Uy, Initial residual = 0.00708487, Final residual = 7.46508e-06, No Iterations 5
DICPCG:  Solving for p, Initial residual = 0.0329233, Final residual = 0.00164125, No Iterations 36
time step continuity errors : sum local = 2.71169e-08, global = 4.36961e-09, cumulative = 2.19032e-07
DICPCG:  Solving for p, Initial residual = 0.0210477, Final residual = 9.01462e-07, No Iterations 133
time step continuity errors : sum local = 1.47798e-11, global = 1.16708e-13, cumulative = 2.19032e-07
ExecutionTime = 2.57 s  ClockTime = 3 s

Time = 0.14

Courant Number mean: 0.0584352 max: 0.607363
smoothSolver:  Solving for Ux, Initial residual = 0.00213941, Final residual = 4.36503e-06, No Iterations 5
smoothSolver:  Solving for Uy, Initial residual = 0.00675042, Final residual = 7.02018e-06, No Iterations 5
DICPCG:  Solving for p, Initial residual = 0.03038, Final residual = 0.00149103, No Iterations 36
time step continuity errors : sum local = 2.38625e-08, global = 3.7722e-09, cumulative = 2.22804e-07
DICPCG:  Solving for p, Initial residual = 0.0197669, Final residual = 8.26136e-07, No Iterations 133
time step continuity errors : sum local = 1.31278e-11, global = 1.06352e-13, cumulative = 2.22805e-07
ExecutionTime = 2.67 s  ClockTime = 3 s

Time = 0.15

Courant Number mean: 0.0584232 max: 0.601228
smoothSolver:  Solving for Ux, Initial residual = 0.00198928, Final residual = 4.00133e-06, No Iterations 5
smoothSolver:  Solving for Uy, Initial residual = 0.00645593, Final residual = 6.62371e-06, No Iterations 5
DICPCG:  Solving for p, Initial residual = 0.0281715, Final residual = 0.00136101, No Iterations 36
time step continuity errors : sum local = 2.11676e-08, global = 3.31051e-09, cumulative = 2.26115e-07
DICPCG:  Solving for p, Initial residual = 0.0185438, Final residual = 8.16314e-07, No Iterations 133
time step continuity errors : sum local = 1.26141e-11, global = 1.05909e-13, cumulative = 2.26115e-07
ExecutionTime = 2.78 s  ClockTime = 3 s

Time = 0.16

Courant Number mean: 0.058412 max: 0.59634
smoothSolver:  Solving for Ux, Initial residual = 0.0018597, Final residual = 3.68578e-06, No Iterations 5
smoothSolver:  Solving for Uy, Initial residual = 0.00619494, Final residual = 6.26702e-06, No Iterations 5
DICPCG:  Solving for p, Initial residual = 0.0262593, Final residual = 0.00126263, No Iterations 36
time step continuity errors : sum local = 1.91373e-08, global = 2.93216e-09, cumulative = 2.29047e-07
DICPCG:  Solving for p, Initial residual = 0.0174265, Final residual = 9.8189e-07, No Iterations 132
time step continuity errors : sum local = 1.47945e-11, global = 1.86733e-13, cumulative = 2.29048e-07
ExecutionTime = 2.89 s  ClockTime = 3 s

Time = 0.17

Courant Number mean: 0.0584016 max: 0.591393
smoothSolver:  Solving for Ux, Initial residual = 0.00174796, Final residual = 9.57673e-06, No Iterations 4
smoothSolver:  Solving for Uy, Initial residual = 0.0059626, Final residual = 5.94918e-06, No Iterations 5
DICPCG:  Solving for p, Initial residual = 0.0239955, Final residual = 0.00119576, No Iterations 42
time step continuity errors : sum local = 1.77076e-08, global = 4.24396e-09, cumulative = 2.33291e-07
DICPCG:  Solving for p, Initial residual = 0.0161485, Final residual = 8.66987e-07, No Iterations 132
time step continuity errors : sum local = 1.27569e-11, global = 1.96115e-13, cumulative = 2.33292e-07
ExecutionTime = 3 s  ClockTime = 3 s

Time = 0.18

Courant Number mean: 0.0583919 max: 0.586455
smoothSolver:  Solving for Ux, Initial residual = 0.0016494, Final residual = 8.91263e-06, No Iterations 4
smoothSolver:  Solving for Uy, Initial residual = 0.00574245, Final residual = 5.66563e-06, No Iterations 5
DICPCG:  Solving for p, Initial residual = 0.0228483, Final residual = 0.00113311, No Iterations 36
time step continuity errors : sum local = 1.63926e-08, global = 2.52868e-09, cumulative = 2.3582e-07
DICPCG:  Solving for p, Initial residual = 0.0153235, Final residual = 9.65754e-07, No Iterations 131
time step continuity errors : sum local = 1.39008e-11, global = 2.8082e-13, cumulative = 2.35821e-07
ExecutionTime = 3.1 s  ClockTime = 3 s

Time = 0.19

Courant Number mean: 0.0583829 max: 0.581666
smoothSolver:  Solving for Ux, Initial residual = 0.00156527, Final residual = 8.3197e-06, No Iterations 4
smoothSolver:  Solving for Uy, Initial residual = 0.00555384, Final residual = 5.40069e-06, No Iterations 5
DICPCG:  Solving for p, Initial residual = 0.0215522, Final residual = 0.00107594, No Iterations 36
time step continuity errors : sum local = 1.5268e-08, global = 2.42445e-09, cumulative = 2.38245e-07
DICPCG:  Solving for p, Initial residual = 0.0145734, Final residual = 9.31093e-07, No Iterations 131
time step continuity errors : sum local = 1.31471e-11, global = 2.62974e-13, cumulative = 2.38245e-07
ExecutionTime = 3.21 s  ClockTime = 3 s

Time = 0.2

Courant Number mean: 0.0583745 max: 0.57714
smoothSolver:  Solving for Ux, Initial residual = 0.00149007, Final residual = 7.78947e-06, No Iterations 4
smoothSolver:  Solving for Uy, Initial residual = 0.00538554, Final residual = 5.16188e-06, No Iterations 5
DICPCG:  Solving for p, Initial residual = 0.0204121, Final residual = 0.000976633, No Iterations 37
time step continuity errors : sum local = 1.36085e-08, global = 2.28229e-09, cumulative = 2.40528e-07
DICPCG:  Solving for p, Initial residual = 0.0138099, Final residual = 9.92998e-07, No Iterations 130
time step continuity errors : sum local = 1.37713e-11, global = 3.35482e-13, cumulative = 2.40528e-07
ExecutionTime = 3.31 s  ClockTime = 3 s

Time = 0.21

Courant Number mean: 0.0583667 max: 0.573773
smoothSolver:  Solving for Ux, Initial residual = 0.00142305, Final residual = 7.31333e-06, No Iterations 4
smoothSolver:  Solving for Uy, Initial residual = 0.00523438, Final residual = 4.94251e-06, No Iterations 5
DICPCG:  Solving for p, Initial residual = 0.0194147, Final residual = 0.000937935, No Iterations 37
time step continuity errors : sum local = 1.285e-08, global = 2.11214e-09, cumulative = 2.4264e-07
DICPCG:  Solving for p, Initial residual = 0.0131967, Final residual = 9.30657e-07, No Iterations 130
time step continuity errors : sum local = 1.26939e-11, global = 3.19386e-13, cumulative = 2.4264e-07
ExecutionTime = 3.42 s  ClockTime = 4 s

Time = 0.22

Courant Number mean: 0.0583593 max: 0.570445
smoothSolver:  Solving for Ux, Initial residual = 0.0013624, Final residual = 6.88534e-06, No Iterations 4
smoothSolver:  Solving for Uy, Initial residual = 0.00509695, Final residual = 4.73972e-06, No Iterations 5
DICPCG:  Solving for p, Initial residual = 0.0185195, Final residual = 0.000877709, No Iterations 37
time step continuity errors : sum local = 1.18363e-08, global = 1.9479e-09, cumulative = 2.44588e-07
DICPCG:  Solving for p, Initial residual = 0.0125946, Final residual = 9.60204e-07, No Iterations 129
time step continuity errors : sum local = 1.28948e-11, global = 3.87536e-13, cumulative = 2.44589e-07
ExecutionTime = 3.52 s  ClockTime = 4 s

Time = 0.23

Courant Number mean: 0.0583525 max: 0.567117
smoothSolver:  Solving for Ux, Initial residual = 0.00130747, Final residual = 6.49823e-06, No Iterations 4
smoothSolver:  Solving for Uy, Initial residual = 0.00497127, Final residual = 4.5528e-06, No Iterations 5
DICPCG:  Solving for p, Initial residual = 0.0177155, Final residual = 0.000848745, No Iterations 37
time step continuity errors : sum local = 1.12778e-08, global = 1.80681e-09, cumulative = 2.46396e-07
DICPCG:  Solving for p, Initial residual = 0.0120598, Final residual = 9.91626e-07, No Iterations 128
time step continuity errors : sum local = 1.31243e-11, global = 3.58612e-13, cumulative = 2.46396e-07
ExecutionTime = 3.63 s  ClockTime = 4 s

Time = 0.24

Courant Number mean: 0.0583461 max: 0.563802
smoothSolver:  Solving for Ux, Initial residual = 0.00125765, Final residual = 6.14557e-06, No Iterations 4
smoothSolver:  Solving for Uy, Initial residual = 0.00485402, Final residual = 4.38006e-06, No Iterations 5
DICPCG:  Solving for p, Initial residual = 0.016978, Final residual = 0.000804355, No Iterations 37
time step continuity errors : sum local = 1.05402e-08, global = 1.67882e-09, cumulative = 2.48075e-07
DICPCG:  Solving for p, Initial residual = 0.0115444, Final residual = 9.18308e-07, No Iterations 128
time step continuity errors : sum local = 1.19879e-11, global = 3.37422e-13, cumulative = 2.48075e-07
ExecutionTime = 3.74 s  ClockTime = 4 s

Time = 0.25

Courant Number mean: 0.0583402 max: 0.560514
smoothSolver:  Solving for Ux, Initial residual = 0.00121204, Final residual = 5.82392e-06, No Iterations 4
smoothSolver:  Solving for Uy, Initial residual = 0.00474355, Final residual = 4.21883e-06, No Iterations 5
DICPCG:  Solving for p, Initial residual = 0.0162877, Final residual = 0.000790813, No Iterations 36
time step continuity errors : sum local = 1.02275e-08, global = 1.53332e-09, cumulative = 2.49608e-07
DICPCG:  Solving for p, Initial residual = 0.0110984, Final residual = 8.63236e-07, No Iterations 128
time step continuity errors : sum local = 1.11249e-11, global = 3.0786e-13, cumulative = 2.49609e-07
ExecutionTime = 3.83 s  ClockTime = 4 s

Time = 0.26

Courant Number mean: 0.0583346 max: 0.557345
smoothSolver:  Solving for Ux, Initial residual = 0.00117006, Final residual = 5.53042e-06, No Iterations 4
smoothSolver:  Solving for Uy, Initial residual = 0.00464013, Final residual = 4.06788e-06, No Iterations 5
DICPCG:  Solving for p, Initial residual = 0.0156509, Final residual = 0.000741863, No Iterations 36
time step continuity errors : sum local = 9.47725e-09, global = 1.43941e-09, cumulative = 2.51048e-07
DICPCG:  Solving for p, Initial residual = 0.0106825, Final residual = 9.97206e-07, No Iterations 127
time step continuity errors : sum local = 1.2697e-11, global = 2.74718e-13, cumulative = 2.51048e-07
ExecutionTime = 3.94 s  ClockTime = 4 s

Time = 0.27

Courant Number mean: 0.0583294 max: 0.554745
smoothSolver:  Solving for Ux, Initial residual = 0.00113147, Final residual = 5.26069e-06, No Iterations 4
smoothSolver:  Solving for Uy, Initial residual = 0.00454298, Final residual = 3.92729e-06, No Iterations 5
DICPCG:  Solving for p, Initial residual = 0.0150747, Final residual = 0.000695301, No Iterations 36
time step continuity errors : sum local = 8.78021e-09, global = 1.35902e-09, cumulative = 2.52407e-07
DICPCG:  Solving for p, Initial residual = 0.0102788, Final residual = 9.44481e-07, No Iterations 127
time step continuity errors : sum local = 1.18885e-11, global = 2.40785e-13, cumulative = 2.52408e-07
ExecutionTime = 4.04 s  ClockTime = 4 s

Time = 0.28

Courant Number mean: 0.0583246 max: 0.552355
smoothSolver:  Solving for Ux, Initial residual = 0.00109603, Final residual = 5.01186e-06, No Iterations 4
smoothSolver:  Solving for Uy, Initial residual = 0.00445174, Final residual = 3.79591e-06, No Iterations 5
DICPCG:  Solving for p, Initial residual = 0.0145423, Final residual = 0.000663714, No Iterations 36
time step continuity errors : sum local = 8.28934e-09, global = 1.27986e-09, cumulative = 2.53687e-07
DICPCG:  Solving for p, Initial residual = 0.00989606, Final residual = 8.89974e-07, No Iterations 127
time step continuity errors : sum local = 1.10814e-11, global = 1.97373e-13, cumulative = 2.53688e-07
ExecutionTime = 4.15 s  ClockTime = 4 s

Time = 0.29

Courant Number mean: 0.0583201 max: 0.55011
smoothSolver:  Solving for Ux, Initial residual = 0.00106311, Final residual = 4.78241e-06, No Iterations 4
smoothSolver:  Solving for Uy, Initial residual = 0.00436727, Final residual = 3.67213e-06, No Iterations 5
DICPCG:  Solving for p, Initial residual = 0.0140471, Final residual = 0.000622068, No Iterations 36
time step continuity errors : sum local = 7.6884e-09, global = 1.20737e-09, cumulative = 2.54895e-07
DICPCG:  Solving for p, Initial residual = 0.00953933, Final residual = 8.45171e-07, No Iterations 127
time step continuity errors : sum local = 1.04156e-11, global = 1.31132e-13, cumulative = 2.54895e-07
ExecutionTime = 4.26 s  ClockTime = 4 s

Time = 0.3

Courant Number mean: 0.0583159 max: 0.547873
smoothSolver:  Solving for Ux, Initial residual = 0.0010325, Final residual = 4.57041e-06, No Iterations 4
smoothSolver:  Solving for Uy, Initial residual = 0.00428881, Final residual = 3.5556e-06, No Iterations 5
DICPCG:  Solving for p, Initial residual = 0.0135854, Final residual = 0.000668873, No Iterations 35
time step continuity errors : sum local = 8.18487e-09, global = 1.17343e-09, cumulative = 2.56069e-07
DICPCG:  Solving for p, Initial residual = 0.00925817, Final residual = 8.22607e-07, No Iterations 127
time step continuity errors : sum local = 1.00379e-11, global = 5.42852e-14, cumulative = 2.56069e-07
ExecutionTime = 4.36 s  ClockTime = 5 s

Time = 0.31

Courant Number mean: 0.058312 max: 0.54565
smoothSolver:  Solving for Ux, Initial residual = 0.00100396, Final residual = 4.37345e-06, No Iterations 4
smoothSolver:  Solving for Uy, Initial residual = 0.00421571, Final residual = 9.92111e-06, No Iterations 4
DICPCG:  Solving for p, Initial residual = 0.0135821, Final residual = 0.00067492, No Iterations 35
time step continuity errors : sum local = 8.18051e-09, global = 1.06574e-09, cumulative = 2.57134e-07
DICPCG:  Solving for p, Initial residual = 0.00942385, Final residual = 8.48361e-07, No Iterations 126
time step continuity errors : sum local = 1.0259e-11, global = 1.08331e-13, cumulative = 2.57135e-07
ExecutionTime = 4.47 s  ClockTime = 5 s

Time = 0.32

Courant Number mean: 0.0583084 max: 0.543444
smoothSolver:  Solving for Ux, Initial residual = 0.00097721, Final residual = 4.19051e-06, No Iterations 4
smoothSolver:  Solving for Uy, Initial residual = 0.0041455, Final residual = 9.63608e-06, No Iterations 4
DICPCG:  Solving for p, Initial residual = 0.0131906, Final residual = 0.000641525, No Iterations 35
time step continuity errors : sum local = 7.70293e-09, global = 9.74002e-10, cumulative = 2.58109e-07
DICPCG:  Solving for p, Initial residual = 0.00909966, Final residual = 9.81101e-07, No Iterations 125
time step continuity errors : sum local = 1.17544e-11, global = 1.36165e-13, cumulative = 2.58109e-07
ExecutionTime = 4.56 s  ClockTime = 5 s

Time = 0.33

Courant Number mean: 0.058305 max: 0.54126
smoothSolver:  Solving for Ux, Initial residual = 0.000952386, Final residual = 4.01996e-06, No Iterations 4
smoothSolver:  Solving for Uy, Initial residual = 0.00407917, Final residual = 9.36128e-06, No Iterations 4
DICPCG:  Solving for p, Initial residual = 0.0128622, Final residual = 0.000619891, No Iterations 35
time step continuity errors : sum local = 7.37724e-09, global = 9.26239e-10, cumulative = 2.59035e-07
DICPCG:  Solving for p, Initial residual = 0.00884668, Final residual = 9.82927e-07, No Iterations 123
time step continuity errors : sum local = 1.16729e-11, global = 1.03184e-13, cumulative = 2.59035e-07
ExecutionTime = 4.66 s  ClockTime = 5 s

Time = 0.34

Courant Number mean: 0.0583019 max: 0.5391
smoothSolver:  Solving for Ux, Initial residual = 0.000929078, Final residual = 3.86085e-06, No Iterations 4
smoothSolver:  Solving for Uy, Initial residual = 0.00401579, Final residual = 9.10092e-06, No Iterations 4
DICPCG:  Solving for p, Initial residual = 0.0125646, Final residual = 0.00059618, No Iterations 35
time step continuity errors : sum local = 7.03365e-09, global = 8.7047e-10, cumulative = 2.59905e-07
DICPCG:  Solving for p, Initial residual = 0.00859523, Final residual = 9.65203e-07, No Iterations 121
time step continuity errors : sum local = 1.13643e-11, global = 1.03676e-13, cumulative = 2.59906e-07
ExecutionTime = 4.77 s  ClockTime = 5 s

Time = 0.35

Courant Number mean: 0.058299 max: 0.537428
smoothSolver:  Solving for Ux, Initial residual = 0.000907197, Final residual = 3.71172e-06, No Iterations 4
smoothSolver:  Solving for Uy, Initial residual = 0.00395494, Final residual = 8.85416e-06, No Iterations 4
DICPCG:  Solving for p, Initial residual = 0.0122107, Final residual = 0.000571941, No Iterations 35
time step continuity errors : sum local = 6.73337e-09, global = 8.19819e-10, cumulative = 2.60725e-07
DICPCG:  Solving for p, Initial residual = 0.00831039, Final residual = 9.44252e-07, No Iterations 121
time step continuity errors : sum local = 1.10953e-11, global = 1.05953e-13, cumulative = 2.60725e-07
ExecutionTime = 4.86 s  ClockTime = 5 s

Time = 0.36

Courant Number mean: 0.0582964 max: 0.535778
smoothSolver:  Solving for Ux, Initial residual = 0.000886691, Final residual = 3.57194e-06, No Iterations 4
smoothSolver:  Solving for Uy, Initial residual = 0.0038959, Final residual = 8.62044e-06, No Iterations 4
DICPCG:  Solving for p, Initial residual = 0.0118672, Final residual = 0.0005532, No Iterations 35
time step continuity errors : sum local = 6.51418e-09, global = 7.71056e-10, cumulative = 2.61497e-07
DICPCG:  Solving for p, Initial residual = 0.00802586, Final residual = 9.2775e-07, No Iterations 121
time step continuity errors : sum local = 1.09035e-11, global = 9.38093e-14, cumulative = 2.61497e-07
ExecutionTime = 4.96 s  ClockTime = 5 s

Time = 0.37

Courant Number mean: 0.058294 max: 0.534133
smoothSolver:  Solving for Ux, Initial residual = 0.000867289, Final residual = 3.44082e-06, No Iterations 4
smoothSolver:  Solving for Uy, Initial residual = 0.00383963, Final residual = 8.39821e-06, No Iterations 4
DICPCG:  Solving for p, Initial residual = 0.0115531, Final residual = 0.000532247, No Iterations 35
time step continuity errors : sum local = 6.26813e-09, global = 7.2479e-10, cumulative = 2.62221e-07
DICPCG:  Solving for p, Initial residual = 0.00775101, Final residual = 9.03488e-07, No Iterations 121
time step continuity errors : sum local = 1.06193e-11, global = 7.79922e-14, cumulative = 2.62222e-07
ExecutionTime = 5.06 s  ClockTime = 5 s

Time = 0.38

Courant Number mean: 0.0582917 max: 0.532629
smoothSolver:  Solving for Ux, Initial residual = 0.000848908, Final residual = 9.69399e-06, No Iterations 3
smoothSolver:  Solving for Uy, Initial residual = 0.0037863, Final residual = 8.18656e-06, No Iterations 4
DICPCG:  Solving for p, Initial residual = 0.0106353, Final residual = 0.00053045, No Iterations 74
time step continuity errors : sum local = 6.2467e-09, global = -1.43376e-10, cumulative = 2.62078e-07
DICPCG:  Solving for p, Initial residual = 0.00766946, Final residual = 9.66714e-07, No Iterations 127
time step continuity errors : sum local = 1.15352e-11, global = 1.3103e-13, cumulative = 2.62078e-07
ExecutionTime = 5.18 s  ClockTime = 6 s

Time = 0.39

Courant Number mean: 0.0582897 max: 0.531149
smoothSolver:  Solving for Ux, Initial residual = 0.000829494, Final residual = 9.40058e-06, No Iterations 3
smoothSolver:  Solving for Uy, Initial residual = 0.00372309, Final residual = 8.00218e-06, No Iterations 4
DICPCG:  Solving for p, Initial residual = 0.0107173, Final residual = 0.00052018, No Iterations 36
time step continuity errors : sum local = 6.13519e-09, global = 1.47767e-09, cumulative = 2.63556e-07
DICPCG:  Solving for p, Initial residual = 0.00731396, Final residual = 8.66777e-07, No Iterations 127
time step continuity errors : sum local = 1.02193e-11, global = 1.34432e-13, cumulative = 2.63556e-07
ExecutionTime = 5.28 s  ClockTime = 6 s

Time = 0.4

Courant Number mean: 0.0582879 max: 0.529677
smoothSolver:  Solving for Ux, Initial residual = 0.000812922, Final residual = 9.09155e-06, No Iterations 3
smoothSolver:  Solving for Uy, Initial residual = 0.00367843, Final residual = 7.80918e-06, No Iterations 4
DICPCG:  Solving for p, Initial residual = 0.0103581, Final residual = 0.000463186, No Iterations 36
time step continuity errors : sum local = 5.4662e-09, global = 1.23527e-09, cumulative = 2.64791e-07
DICPCG:  Solving for p, Initial residual = 0.00707014, Final residual = 8.63269e-07, No Iterations 126
time step continuity errors : sum local = 1.01823e-11, global = 1.73685e-13, cumulative = 2.64792e-07
ExecutionTime = 5.38 s  ClockTime = 6 s

Time = 0.41

Courant Number mean: 0.0582862 max: 0.528216
smoothSolver:  Solving for Ux, Initial residual = 0.000797521, Final residual = 8.80112e-06, No Iterations 3
smoothSolver:  Solving for Uy, Initial residual = 0.00363342, Final residual = 7.62674e-06, No Iterations 4
DICPCG:  Solving for p, Initial residual = 0.010143, Final residual = 0.000500205, No Iterations 35
time step continuity errors : sum local = 5.90062e-09, global = 1.26715e-09, cumulative = 2.66059e-07
DICPCG:  Solving for p, Initial residual = 0.00692024, Final residual = 9.99418e-07, No Iterations 124
time step continuity errors : sum local = 1.17835e-11, global = 1.13897e-13, cumulative = 2.66059e-07
ExecutionTime = 5.48 s  ClockTime = 6 s

Time = 0.42

Courant Number mean: 0.0582847 max: 0.526768
smoothSolver:  Solving for Ux, Initial residual = 0.00078281, Final residual = 8.5252e-06, No Iterations 3
smoothSolver:  Solving for Uy, Initial residual = 0.00359039, Final residual = 7.45026e-06, No Iterations 4
DICPCG:  Solving for p, Initial residual = 0.00996753, Final residual = 0.000486511, No Iterations 35
time step continuity errors : sum local = 5.73711e-09, global = 1.2232e-09, cumulative = 2.67282e-07
DICPCG:  Solving for p, Initial residual = 0.00676524, Final residual = 9.67914e-07, No Iterations 123
time step continuity errors : sum local = 1.1408e-11, global = 5.35724e-14, cumulative = 2.67282e-07
ExecutionTime = 5.58 s  ClockTime = 6 s

Time = 0.43

Courant Number mean: 0.0582833 max: 0.525334
smoothSolver:  Solving for Ux, Initial residual = 0.000768798, Final residual = 8.2623e-06, No Iterations 3
smoothSolver:  Solving for Uy, Initial residual = 0.00354852, Final residual = 7.27919e-06, No Iterations 4
DICPCG:  Solving for p, Initial residual = 0.00976555, Final residual = 0.000471943, No Iterations 35
time step continuity errors : sum local = 5.56291e-09, global = 1.18538e-09, cumulative = 2.68467e-07
DICPCG:  Solving for p, Initial residual = 0.00658371, Final residual = 9.94e-07, No Iterations 122
time step continuity errors : sum local = 1.17101e-11, global = -2.40811e-15, cumulative = 2.68467e-07
ExecutionTime = 5.68 s  ClockTime = 6 s

Time = 0.44

Courant Number mean: 0.0582821 max: 0.523979
smoothSolver:  Solving for Ux, Initial residual = 0.000755426, Final residual = 8.01151e-06, No Iterations 3
smoothSolver:  Solving for Uy, Initial residual = 0.00350791, Final residual = 7.11303e-06, No Iterations 4
DICPCG:  Solving for p, Initial residual = 0.00957383, Final residual = 0.000458157, No Iterations 35
time step continuity errors : sum local = 5.39778e-09, global = 1.1467e-09, cumulative = 2.69614e-07
DICPCG:  Solving for p, Initial residual = 0.00640967, Final residual = 9.55099e-07, No Iterations 122
time step continuity errors : sum local = 1.1246e-11, global = -2.19889e-14, cumulative = 2.69614e-07
ExecutionTime = 5.78 s  ClockTime = 6 s

Time = 0.45

Courant Number mean: 0.058281 max: 0.522862
smoothSolver:  Solving for Ux, Initial residual = 0.000742611, Final residual = 7.77184e-06, No Iterations 3
smoothSolver:  Solving for Uy, Initial residual = 0.00346824, Final residual = 6.95161e-06, No Iterations 4
DICPCG:  Solving for p, Initial residual = 0.00938668, Final residual = 0.00044551, No Iterations 35
time step continuity errors : sum local = 5.24586e-09, global = 1.10905e-09, cumulative = 2.70723e-07
DICPCG:  Solving for p, Initial residual = 0.00624307, Final residual = 9.744e-07, No Iterations 121
time step continuity errors : sum local = 1.14665e-11, global = -4.7748e-14, cumulative = 2.70723e-07
ExecutionTime = 5.88 s  ClockTime = 6 s

Time = 0.46

Courant Number mean: 0.05828 max: 0.521748
smoothSolver:  Solving for Ux, Initial residual = 0.000730365, Final residual = 7.54264e-06, No Iterations 3
smoothSolver:  Solving for Uy, Initial residual = 0.00342949, Final residual = 6.79493e-06, No Iterations 4
DICPCG:  Solving for p, Initial residual = 0.00920245, Final residual = 0.00043378, No Iterations 35
time step continuity errors : sum local = 5.10539e-09, global = 1.07229e-09, cumulative = 2.71795e-07
DICPCG:  Solving for p, Initial residual = 0.00608163, Final residual = 9.21206e-07, No Iterations 121
time step continuity errors : sum local = 1.08353e-11, global = -3.03644e-14, cumulative = 2.71795e-07
ExecutionTime = 5.98 s  ClockTime = 6 s

Time = 0.47

Courant Number mean: 0.0582792 max: 0.520639
smoothSolver:  Solving for Ux, Initial residual = 0.000718702, Final residual = 7.32331e-06, No Iterations 3
smoothSolver:  Solving for Uy, Initial residual = 0.00339222, Final residual = 6.64297e-06, No Iterations 4
DICPCG:  Solving for p, Initial residual = 0.00901904, Final residual = 0.000422684, No Iterations 35
time step continuity errors : sum local = 4.97427e-09, global = 1.03642e-09, cumulative = 2.72832e-07
DICPCG:  Solving for p, Initial residual = 0.00592183, Final residual = 8.70292e-07, No Iterations 121
time step continuity errors : sum local = 1.02394e-11, global = -1.19874e-14, cumulative = 2.72832e-07
ExecutionTime = 6.08 s  ClockTime = 7 s

Time = 0.48

Courant Number mean: 0.0582784 max: 0.519534
smoothSolver:  Solving for Ux, Initial residual = 0.000707554, Final residual = 7.11319e-06, No Iterations 3
smoothSolver:  Solving for Uy, Initial residual = 0.00335608, Final residual = 6.49554e-06, No Iterations 4
DICPCG:  Solving for p, Initial residual = 0.00883549, Final residual = 0.000412095, No Iterations 35
time step continuity errors : sum local = 4.85188e-09, global = 1.00142e-09, cumulative = 2.73833e-07
DICPCG:  Solving for p, Initial residual = 0.00576528, Final residual = 9.73372e-07, No Iterations 120
time step continuity errors : sum local = 1.14597e-11, global = 3.88747e-14, cumulative = 2.73833e-07
ExecutionTime = 6.18 s  ClockTime = 7 s

Time = 0.49

Courant Number mean: 0.0582778 max: 0.518451
smoothSolver:  Solving for Ux, Initial residual = 0.000696869, Final residual = 6.91172e-06, No Iterations 3
smoothSolver:  Solving for Uy, Initial residual = 0.00332121, Final residual = 6.35229e-06, No Iterations 4
DICPCG:  Solving for p, Initial residual = 0.00865871, Final residual = 0.000401879, No Iterations 35
time step continuity errors : sum local = 4.73506e-09, global = 9.67221e-10, cumulative = 2.748e-07
DICPCG:  Solving for p, Initial residual = 0.00561349, Final residual = 9.24181e-07, No Iterations 120
time step continuity errors : sum local = 1.08897e-11, global = 4.78877e-14, cumulative = 2.748e-07
ExecutionTime = 6.29 s  ClockTime = 7 s

Time = 0.5

Courant Number mean: 0.0582772 max: 0.517464
smoothSolver:  Solving for Ux, Initial residual = 0.00068656, Final residual = 6.71846e-06, No Iterations 3
smoothSolver:  Solving for Uy, Initial residual = 0.00328733, Final residual = 6.21307e-06, No Iterations 4
DICPCG:  Solving for p, Initial residual = 0.00848503, Final residual = 0.000391936, No Iterations 35
time step continuity errors : sum local = 4.62231e-09, global = 9.33821e-10, cumulative = 2.75734e-07
DICPCG:  Solving for p, Initial residual = 0.00546576, Final residual = 8.77598e-07, No Iterations 120
time step continuity errors : sum local = 1.03513e-11, global = 5.42931e-14, cumulative = 2.75734e-07
ExecutionTime = 6.39 s  ClockTime = 7 s

Time = 0.51

Courant Number mean: 0.0582768 max: 0.516482
smoothSolver:  Solving for Ux, Initial residual = 0.000676585, Final residual = 6.53294e-06, No Iterations 3
smoothSolver:  Solving for Uy, Initial residual = 0.00325471, Final residual = 6.0777e-06, No Iterations 4
DICPCG:  Solving for p, Initial residual = 0.00831387, Final residual = 0.000382265, No Iterations 35
time step continuity errors : sum local = 4.51287e-09, global = 9.01191e-10, cumulative = 2.76636e-07
DICPCG:  Solving for p, Initial residual = 0.00532282, Final residual = 8.33794e-07, No Iterations 120
time step continuity errors : sum local = 9.84486e-12, global = 5.79995e-14, cumulative = 2.76636e-07
ExecutionTime = 6.48 s  ClockTime = 7 s

Time = 0.52

Courant Number mean: 0.0582765 max: 0.515507
smoothSolver:  Solving for Ux, Initial residual = 0.000666942, Final residual = 6.35476e-06, No Iterations 3
smoothSolver:  Solving for Uy, Initial residual = 0.00322281, Final residual = 5.9461e-06, No Iterations 4
DICPCG:  Solving for p, Initial residual = 0.00814581, Final residual = 0.000372802, No Iterations 35
time step continuity errors : sum local = 4.40593e-09, global = 8.69317e-10, cumulative = 2.77505e-07
DICPCG:  Solving for p, Initial residual = 0.00518435, Final residual = 7.92638e-07, No Iterations 120
time step continuity errors : sum local = 9.36935e-12, global = 5.94007e-14, cumulative = 2.77505e-07
ExecutionTime = 6.59 s  ClockTime = 7 s

Time = 0.53

Courant Number mean: 0.0582762 max: 0.514538
smoothSolver:  Solving for Ux, Initial residual = 0.000657608, Final residual = 6.18352e-06, No Iterations 3
smoothSolver:  Solving for Uy, Initial residual = 0.00319117, Final residual = 5.81815e-06, No Iterations 4
DICPCG:  Solving for p, Initial residual = 0.0079854, Final residual = 0.000363576, No Iterations 35
time step continuity errors : sum local = 4.30159e-09, global = 8.38187e-10, cumulative = 2.78343e-07
DICPCG:  Solving for p, Initial residual = 0.00505051, Final residual = 9.61026e-07, No Iterations 119
time step continuity errors : sum local = 1.1372e-11, global = 8.63274e-14, cumulative = 2.78343e-07
ExecutionTime = 6.68 s  ClockTime = 7 s

Time = 0.54

Courant Number mean: 0.058276 max: 0.513577
smoothSolver:  Solving for Ux, Initial residual = 0.000648566, Final residual = 6.01883e-06, No Iterations 3
smoothSolver:  Solving for Uy, Initial residual = 0.00315974, Final residual = 5.69374e-06, No Iterations 4
DICPCG:  Solving for p, Initial residual = 0.00782662, Final residual = 0.000354597, No Iterations 35
time step continuity errors : sum local = 4.20008e-09, global = 8.07791e-10, cumulative = 2.79151e-07
DICPCG:  Solving for p, Initial residual = 0.00492099, Final residual = 9.16859e-07, No Iterations 119
time step continuity errors : sum local = 1.08615e-11, global = 8.22479e-14, cumulative = 2.79151e-07
ExecutionTime = 6.79 s  ClockTime = 7 s

Time = 0.55

Courant Number mean: 0.0582759 max: 0.512623
smoothSolver:  Solving for Ux, Initial residual = 0.000639808, Final residual = 5.86036e-06, No Iterations 3
smoothSolver:  Solving for Uy, Initial residual = 0.00312847, Final residual = 5.57275e-06, No Iterations 4
DICPCG:  Solving for p, Initial residual = 0.00767058, Final residual = 0.00034605, No Iterations 35
time step continuity errors : sum local = 4.10353e-09, global = 7.78121e-10, cumulative = 2.79929e-07
DICPCG:  Solving for p, Initial residual = 0.00479494, Final residual = 8.75669e-07, No Iterations 119
time step continuity errors : sum local = 1.03856e-11, global = 7.76117e-14, cumulative = 2.79929e-07
ExecutionTime = 6.89 s  ClockTime = 7 s

Time = 0.56

Courant Number mean: 0.0582759 max: 0.511739
smoothSolver:  Solving for Ux, Initial residual = 0.000631341, Final residual = 5.70779e-06, No Iterations 3
smoothSolver:  Solving for Uy, Initial residual = 0.00309728, Final residual = 5.45503e-06, No Iterations 4
DICPCG:  Solving for p, Initial residual = 0.0075169, Final residual = 0.000337818, No Iterations 35
time step continuity errors : sum local = 4.01087e-09, global = 7.49169e-10, cumulative = 2.80679e-07
DICPCG:  Solving for p, Initial residual = 0.00467225, Final residual = 9.98138e-07, No Iterations 118
time step continuity errors : sum local = 1.18533e-11, global = 4.65073e-15, cumulative = 2.80679e-07
ExecutionTime = 6.99 s  ClockTime = 8 s

Time = 0.57

Courant Number mean: 0.058276 max: 0.51098
smoothSolver:  Solving for Ux, Initial residual = 0.000623195, Final residual = 5.56084e-06, No Iterations 3
smoothSolver:  Solving for Uy, Initial residual = 0.00306637, Final residual = 5.34049e-06, No Iterations 4
DICPCG:  Solving for p, Initial residual = 0.00736531, Final residual = 0.000329823, No Iterations 35
time step continuity errors : sum local = 3.921e-09, global = 7.2093e-10, cumulative = 2.81399e-07
DICPCG:  Solving for p, Initial residual = 0.00455363, Final residual = 9.57088e-07, No Iterations 118
time step continuity errors : sum local = 1.13803e-11, global = 1.61355e-15, cumulative = 2.81399e-07
ExecutionTime = 7.09 s  ClockTime = 8 s

Time = 0.58

Courant Number mean: 0.0582761 max: 0.510223
smoothSolver:  Solving for Ux, Initial residual = 0.0006153, Final residual = 5.41923e-06, No Iterations 3
smoothSolver:  Solving for Uy, Initial residual = 0.00303608, Final residual = 5.22908e-06, No Iterations 4
DICPCG:  Solving for p, Initial residual = 0.00721502, Final residual = 0.000322049, No Iterations 35
time step continuity errors : sum local = 3.83368e-09, global = 6.93389e-10, cumulative = 2.82093e-07
DICPCG:  Solving for p, Initial residual = 0.0044383, Final residual = 9.18976e-07, No Iterations 118
time step continuity errors : sum local = 1.09415e-11, global = -1.4928e-15, cumulative = 2.82093e-07
ExecutionTime = 7.18 s  ClockTime = 8 s

Time = 0.59

Courant Number mean: 0.0582763 max: 0.509468
smoothSolver:  Solving for Ux, Initial residual = 0.00060765, Final residual = 5.28272e-06, No Iterations 3
smoothSolver:  Solving for Uy, Initial residual = 0.00300641, Final residual = 5.12072e-06, No Iterations 4
DICPCG:  Solving for p, Initial residual = 0.00706679, Final residual = 0.00031452, No Iterations 35
time step continuity errors : sum local = 3.74901e-09, global = 6.66553e-10, cumulative = 2.82759e-07
DICPCG:  Solving for p, Initial residual = 0.00432678, Final residual = 8.83081e-07, No Iterations 118
time step continuity errors : sum local = 1.05284e-11, global = -4.6637e-15, cumulative = 2.82759e-07
ExecutionTime = 7.28 s  ClockTime = 8 s

Time = 0.6

Courant Number mean: 0.0582766 max: 0.508716
smoothSolver:  Solving for Ux, Initial residual = 0.000600246, Final residual = 5.15105e-06, No Iterations 3
smoothSolver:  Solving for Uy, Initial residual = 0.00297726, Final residual = 5.01526e-06, No Iterations 4
DICPCG:  Solving for p, Initial residual = 0.00691968, Final residual = 0.000307224, No Iterations 35
time step continuity errors : sum local = 3.66708e-09, global = 6.40407e-10, cumulative = 2.834e-07
DICPCG:  Solving for p, Initial residual = 0.00421888, Final residual = 8.49395e-07, No Iterations 118
time step continuity errors : sum local = 1.01407e-11, global = -7.86841e-15, cumulative = 2.834e-07
ExecutionTime = 7.38 s  ClockTime = 8 s

Time = 0.61

Courant Number mean: 0.0582769 max: 0.507968
smoothSolver:  Solving for Ux, Initial residual = 0.000593051, Final residual = 5.02402e-06, No Iterations 3
smoothSolver:  Solving for Uy, Initial residual = 0.00294875, Final residual = 4.91258e-06, No Iterations 4
DICPCG:  Solving for p, Initial residual = 0.00677484, Final residual = 0.000300135, No Iterations 35
time step continuity errors : sum local = 3.58749e-09, global = 6.14946e-10, cumulative = 2.84015e-07
DICPCG:  Solving for p, Initial residual = 0.00411392, Final residual = 8.17698e-07, No Iterations 118
time step continuity errors : sum local = 9.77598e-12, global = -1.10889e-14, cumulative = 2.84015e-07
ExecutionTime = 7.48 s  ClockTime = 8 s

Time = 0.62

Courant Number mean: 0.0582772 max: 0.507224
smoothSolver:  Solving for Ux, Initial residual = 0.000586053, Final residual = 4.90139e-06, No Iterations 3
smoothSolver:  Solving for Uy, Initial residual = 0.00292089, Final residual = 4.81258e-06, No Iterations 4
DICPCG:  Solving for p, Initial residual = 0.00663158, Final residual = 0.000293244, No Iterations 35
time step continuity errors : sum local = 3.51037e-09, global = 5.90163e-10, cumulative = 2.84605e-07
DICPCG:  Solving for p, Initial residual = 0.00401165, Final residual = 9.80992e-07, No Iterations 117
time step continuity errors : sum local = 1.17465e-11, global = -1.79349e-14, cumulative = 2.84605e-07
ExecutionTime = 7.57 s  ClockTime = 8 s

Time = 0.63

Courant Number mean: 0.0582777 max: 0.506484
smoothSolver:  Solving for Ux, Initial residual = 0.00057925, Final residual = 4.78296e-06, No Iterations 3
smoothSolver:  Solving for Uy, Initial residual = 0.00289345, Final residual = 4.71523e-06, No Iterations 4
DICPCG:  Solving for p, Initial residual = 0.00649003, Final residual = 0.000286559, No Iterations 35
time step continuity errors : sum local = 3.4358e-09, global = 5.66054e-10, cumulative = 2.85171e-07
DICPCG:  Solving for p, Initial residual = 0.00391227, Final residual = 9.47993e-07, No Iterations 117
time step continuity errors : sum local = 1.13695e-11, global = -2.21604e-14, cumulative = 2.85171e-07
ExecutionTime = 7.67 s  ClockTime = 8 s

Time = 0.64

Courant Number mean: 0.0582781 max: 0.505748
smoothSolver:  Solving for Ux, Initial residual = 0.000572643, Final residual = 4.66856e-06, No Iterations 3
smoothSolver:  Solving for Uy, Initial residual = 0.00286605, Final residual = 4.62044e-06, No Iterations 4
DICPCG:  Solving for p, Initial residual = 0.00635118, Final residual = 0.000280093, No Iterations 35
time step continuity errors : sum local = 3.36382e-09, global = 5.42603e-10, cumulative = 2.85713e-07
DICPCG:  Solving for p, Initial residual = 0.00381557, Final residual = 9.15892e-07, No Iterations 117
time step continuity errors : sum local = 1.10027e-11, global = -2.61831e-14, cumulative = 2.85713e-07
ExecutionTime = 7.77 s  ClockTime = 8 s

Time = 0.65

Courant Number mean: 0.0582786 max: 0.505051
smoothSolver:  Solving for Ux, Initial residual = 0.000566225, Final residual = 4.558e-06, No Iterations 3
smoothSolver:  Solving for Uy, Initial residual = 0.0028388, Final residual = 4.52816e-06, No Iterations 4
DICPCG:  Solving for p, Initial residual = 0.00621666, Final residual = 0.000273829, No Iterations 35
time step continuity errors : sum local = 3.2942e-09, global = 5.19813e-10, cumulative = 2.86233e-07
DICPCG:  Solving for p, Initial residual = 0.00372144, Final residual = 8.84258e-07, No Iterations 117
time step continuity errors : sum local = 1.06411e-11, global = -2.99593e-14, cumulative = 2.86233e-07
ExecutionTime = 7.87 s  ClockTime = 9 s

Time = 0.66

Courant Number mean: 0.0582792 max: 0.504404
smoothSolver:  Solving for Ux, Initial residual = 0.000560004, Final residual = 4.45111e-06, No Iterations 3
smoothSolver:  Solving for Uy, Initial residual = 0.00281153, Final residual = 4.4383e-06, No Iterations 4
DICPCG:  Solving for p, Initial residual = 0.00608565, Final residual = 0.000267738, No Iterations 35
time step continuity errors : sum local = 3.22653e-09, global = 4.97671e-10, cumulative = 2.86731e-07
DICPCG:  Solving for p, Initial residual = 0.00362983, Final residual = 8.53175e-07, No Iterations 117
time step continuity errors : sum local = 1.02849e-11, global = -3.34243e-14, cumulative = 2.86731e-07
ExecutionTime = 7.96 s  ClockTime = 9 s

Time = 0.67

Courant Number mean: 0.0582798 max: 0.503762
smoothSolver:  Solving for Ux, Initial residual = 0.000553958, Final residual = 4.34774e-06, No Iterations 3
smoothSolver:  Solving for Uy, Initial residual = 0.00278429, Final residual = 4.35079e-06, No Iterations 4
DICPCG:  Solving for p, Initial residual = 0.00595727, Final residual = 0.000261778, No Iterations 35
time step continuity errors : sum local = 3.16022e-09, global = 4.76169e-10, cumulative = 2.87207e-07
DICPCG:  Solving for p, Initial residual = 0.00354077, Final residual = 8.21555e-07, No Iterations 117
time step continuity errors : sum local = 9.9209e-12, global = -3.64914e-14, cumulative = 2.87207e-07
ExecutionTime = 8.07 s  ClockTime = 9 s

Time = 0.68

Courant Number mean: 0.0582805 max: 0.503124
smoothSolver:  Solving for Ux, Initial residual = 0.000548082, Final residual = 4.24776e-06, No Iterations 3
smoothSolver:  Solving for Uy, Initial residual = 0.00275739, Final residual = 4.26558e-06, No Iterations 4
DICPCG:  Solving for p, Initial residual = 0.00583078, Final residual = 0.000255911, No Iterations 35
time step continuity errors : sum local = 3.09485e-09, global = 4.55301e-10, cumulative = 2.87662e-07
DICPCG:  Solving for p, Initial residual = 0.00345458, Final residual = 7.88535e-07, No Iterations 117
time step continuity errors : sum local = 9.53898e-12, global = -3.90674e-14, cumulative = 2.87662e-07
ExecutionTime = 8.17 s  ClockTime = 9 s

Time = 0.69

Courant Number mean: 0.0582811 max: 0.502491
smoothSolver:  Solving for Ux, Initial residual = 0.000542422, Final residual = 4.151e-06, No Iterations 3
smoothSolver:  Solving for Uy, Initial residual = 0.0027309, Final residual = 4.18259e-06, No Iterations 4
DICPCG:  Solving for p, Initial residual = 0.00570629, Final residual = 0.000250116, No Iterations 35
time step continuity errors : sum local = 3.03015e-09, global = 4.3506e-10, cumulative = 2.88097e-07
DICPCG:  Solving for p, Initial residual = 0.00337096, Final residual = 9.91372e-07, No Iterations 116
time step continuity errors : sum local = 1.2014e-11, global = -4.30479e-14, cumulative = 2.88097e-07
ExecutionTime = 8.26 s  ClockTime = 9 s

Time = 0.7

Courant Number mean: 0.0582819 max: 0.501864
smoothSolver:  Solving for Ux, Initial residual = 0.000536903, Final residual = 4.05736e-06, No Iterations 3
smoothSolver:  Solving for Uy, Initial residual = 0.0027048, Final residual = 4.10176e-06, No Iterations 4
DICPCG:  Solving for p, Initial residual = 0.00558374, Final residual = 0.00024433, No Iterations 35
time step continuity errors : sum local = 2.96532e-09, global = 4.15448e-10, cumulative = 2.88513e-07
DICPCG:  Solving for p, Initial residual = 0.00328992, Final residual = 9.20911e-07, No Iterations 116
time step continuity errors : sum local = 1.11798e-11, global = -4.53049e-14, cumulative = 2.88513e-07
ExecutionTime = 8.37 s  ClockTime = 9 s

Time = 0.71

Courant Number mean: 0.0582826 max: 0.50135
smoothSolver:  Solving for Ux, Initial residual = 0.000531529, Final residual = 3.96668e-06, No Iterations 3
smoothSolver:  Solving for Uy, Initial residual = 0.00267908, Final residual = 4.02298e-06, No Iterations 4
DICPCG:  Solving for p, Initial residual = 0.00546294, Final residual = 0.000238788, No Iterations 35
time step continuity errors : sum local = 2.90322e-09, global = 3.96446e-10, cumulative = 2.88909e-07
DICPCG:  Solving for p, Initial residual = 0.00321132, Final residual = 9.88852e-07, No Iterations 106
time step continuity errors : sum local = 1.20259e-11, global = -4.92882e-14, cumulative = 2.88909e-07
ExecutionTime = 8.45 s  ClockTime = 9 s

Time = 0.72

Courant Number mean: 0.0582834 max: 0.50084
smoothSolver:  Solving for Ux, Initial residual = 0.000526306, Final residual = 3.87884e-06, No Iterations 3
smoothSolver:  Solving for Uy, Initial residual = 0.00265375, Final residual = 3.94621e-06, No Iterations 4
DICPCG:  Solving for p, Initial residual = 0.00534689, Final residual = 0.000233644, No Iterations 35
time step continuity errors : sum local = 2.8457e-09, global = 3.78126e-10, cumulative = 2.89287e-07
DICPCG:  Solving for p, Initial residual = 0.00313502, Final residual = 9.94939e-07, No Iterations 104
time step continuity errors : sum local = 1.21209e-11, global = -2.64019e-14, cumulative = 2.89287e-07
ExecutionTime = 8.55 s  ClockTime = 9 s

Time = 0.73

Courant Number mean: 0.0582842 max: 0.500333
smoothSolver:  Solving for Ux, Initial residual = 0.000521216, Final residual = 3.79374e-06, No Iterations 3
smoothSolver:  Solving for Uy, Initial residual = 0.0026289, Final residual = 3.8714e-06, No Iterations 4
DICPCG:  Solving for p, Initial residual = 0.0052346, Final residual = 0.000228978, No Iterations 35
time step continuity errors : sum local = 2.79363e-09, global = 3.60388e-10, cumulative = 2.89648e-07
DICPCG:  Solving for p, Initial residual = 0.00306132, Final residual = 8.851e-07, No Iterations 104
time step continuity errors : sum local = 1.08009e-11, global = -7.72074e-15, cumulative = 2.89648e-07
ExecutionTime = 8.64 s  ClockTime = 9 s

Time = 0.74

Courant Number mean: 0.058285 max: 0.499828
smoothSolver:  Solving for Ux, Initial residual = 0.000516285, Final residual = 3.71125e-06, No Iterations 3
smoothSolver:  Solving for Uy, Initial residual = 0.00260446, Final residual = 3.7985e-06, No Iterations 4
DICPCG:  Solving for p, Initial residual = 0.00512551, Final residual = 0.000224845, No Iterations 35
time step continuity errors : sum local = 2.74784e-09, global = 3.43403e-10, cumulative = 2.89991e-07
DICPCG:  Solving for p, Initial residual = 0.00299002, Final residual = 9.90546e-07, No Iterations 103
time step continuity errors : sum local = 1.21079e-11, global = -4.87732e-14, cumulative = 2.89991e-07
ExecutionTime = 8.74 s  ClockTime = 10 s

Time = 0.75

Courant Number mean: 0.0582859 max: 0.499325
smoothSolver:  Solving for Ux, Initial residual = 0.000511493, Final residual = 3.63128e-06, No Iterations 3
smoothSolver:  Solving for Uy, Initial residual = 0.00258007, Final residual = 3.72744e-06, No Iterations 4
DICPCG:  Solving for p, Initial residual = 0.00501921, Final residual = 0.000220278, No Iterations 35
time step continuity errors : sum local = 2.69661e-09, global = 3.27032e-10, cumulative = 2.90318e-07
DICPCG:  Solving for p, Initial residual = 0.00292198, Final residual = 9.03891e-07, No Iterations 103
time step continuity errors : sum local = 1.10675e-11, global = -1.12517e-14, cumulative = 2.90318e-07
ExecutionTime = 8.83 s  ClockTime = 10 s

Time = 0.76

Courant Number mean: 0.0582868 max: 0.498825
smoothSolver:  Solving for Ux, Initial residual = 0.000506847, Final residual = 3.55374e-06, No Iterations 3
smoothSolver:  Solving for Uy, Initial residual = 0.00255574, Final residual = 3.65817e-06, No Iterations 4
DICPCG:  Solving for p, Initial residual = 0.00491468, Final residual = 0.000216197, No Iterations 35
time step continuity errors : sum local = 2.65114e-09, global = 3.1043e-10, cumulative = 2.90628e-07
DICPCG:  Solving for p, Initial residual = 0.00285807, Final residual = 8.78074e-07, No Iterations 103
time step continuity errors : sum local = 1.07695e-11, global = -1.86066e-14, cumulative = 2.90628e-07
ExecutionTime = 8.92 s  ClockTime = 10 s

Time = 0.77

Courant Number mean: 0.0582877 max: 0.498327
smoothSolver:  Solving for Ux, Initial residual = 0.00050232, Final residual = 3.47852e-06, No Iterations 3
smoothSolver:  Solving for Uy, Initial residual = 0.00253154, Final residual = 3.59063e-06, No Iterations 4
DICPCG:  Solving for p, Initial residual = 0.00481367, Final residual = 0.000211715, No Iterations 35
time step continuity errors : sum local = 2.6005e-09, global = 2.94245e-10, cumulative = 2.90923e-07
DICPCG:  Solving for p, Initial residual = 0.00279866, Final residual = 8.56353e-07, No Iterations 103
time step continuity errors : sum local = 1.05202e-11, global = -1.18211e-14, cumulative = 2.90923e-07
ExecutionTime = 9.01 s  ClockTime = 10 s

Time = 0.78

Courant Number mean: 0.0582886 max: 0.497833
smoothSolver:  Solving for Ux, Initial residual = 0.000497917, Final residual = 3.40554e-06, No Iterations 3
smoothSolver:  Solving for Uy, Initial residual = 0.00250752, Final residual = 3.52478e-06, No Iterations 4
DICPCG:  Solving for p, Initial residual = 0.00471555, Final residual = 0.000207782, No Iterations 35
time step continuity errors : sum local = 2.55641e-09, global = 2.78571e-10, cumulative = 2.91201e-07
DICPCG:  Solving for p, Initial residual = 0.00273807, Final residual = 8.39782e-07, No Iterations 103
time step continuity errors : sum local = 1.03335e-11, global = -6.16798e-15, cumulative = 2.91201e-07
ExecutionTime = 9.1 s  ClockTime = 10 s

Time = 0.79

Courant Number mean: 0.0582895 max: 0.497342
smoothSolver:  Solving for Ux, Initial residual = 0.000493625, Final residual = 3.33471e-06, No Iterations 3
smoothSolver:  Solving for Uy, Initial residual = 0.00248379, Final residual = 3.46057e-06, No Iterations 4
DICPCG:  Solving for p, Initial residual = 0.00461858, Final residual = 0.000202651, No Iterations 35
time step continuity errors : sum local = 2.49734e-09, global = 2.63686e-10, cumulative = 2.91465e-07
DICPCG:  Solving for p, Initial residual = 0.00267787, Final residual = 8.30917e-07, No Iterations 103
time step continuity errors : sum local = 1.02409e-11, global = -6.10098e-15, cumulative = 2.91465e-07
ExecutionTime = 9.19 s  ClockTime = 10 s

Time = 0.8

Courant Number mean: 0.0582905 max: 0.496854
smoothSolver:  Solving for Ux, Initial residual = 0.00048945, Final residual = 3.26596e-06, No Iterations 3
smoothSolver:  Solving for Uy, Initial residual = 0.00246038, Final residual = 3.39797e-06, No Iterations 4
DICPCG:  Solving for p, Initial residual = 0.00452434, Final residual = 0.000198737, No Iterations 35
time step continuity errors : sum local = 2.45302e-09, global = 2.49102e-10, cumulative = 2.91714e-07
DICPCG:  Solving for p, Initial residual = 0.00261963, Final residual = 8.37998e-07, No Iterations 103
time step continuity errors : sum local = 1.03445e-11, global = -8.28946e-15, cumulative = 2.91714e-07
ExecutionTime = 9.29 s  ClockTime = 10 s

Time = 0.81

Courant Number mean: 0.0582916 max: 0.49637
smoothSolver:  Solving for Ux, Initial residual = 0.000485385, Final residual = 3.1992e-06, No Iterations 3
smoothSolver:  Solving for Uy, Initial residual = 0.00243729, Final residual = 3.33693e-06, No Iterations 4
DICPCG:  Solving for p, Initial residual = 0.00443193, Final residual = 0.00019421, No Iterations 35
time step continuity errors : sum local = 2.40086e-09, global = 2.34943e-10, cumulative = 2.91949e-07
DICPCG:  Solving for p, Initial residual = 0.00256312, Final residual = 8.54201e-07, No Iterations 103
time step continuity errors : sum local = 1.05605e-11, global = -1.87075e-14, cumulative = 2.91949e-07
ExecutionTime = 9.39 s  ClockTime = 10 s

Time = 0.82

Courant Number mean: 0.0582926 max: 0.495889
smoothSolver:  Solving for Ux, Initial residual = 0.000481436, Final residual = 3.13435e-06, No Iterations 3
smoothSolver:  Solving for Uy, Initial residual = 0.00241463, Final residual = 3.27739e-06, No Iterations 4
DICPCG:  Solving for p, Initial residual = 0.00434378, Final residual = 0.000190533, No Iterations 35
time step continuity errors : sum local = 2.35897e-09, global = 2.21531e-10, cumulative = 2.9217e-07
DICPCG:  Solving for p, Initial residual = 0.00250913, Final residual = 8.83804e-07, No Iterations 103
time step continuity errors : sum local = 1.09428e-11, global = -3.3898e-14, cumulative = 2.9217e-07
ExecutionTime = 9.48 s  ClockTime = 10 s

Time = 0.83

Courant Number mean: 0.0582937 max: 0.495412
smoothSolver:  Solving for Ux, Initial residual = 0.000477604, Final residual = 3.07136e-06, No Iterations 3
smoothSolver:  Solving for Uy, Initial residual = 0.00239248, Final residual = 3.21931e-06, No Iterations 4
DICPCG:  Solving for p, Initial residual = 0.0042583, Final residual = 0.000187259, No Iterations 35
time step continuity errors : sum local = 2.32192e-09, global = 2.08702e-10, cumulative = 2.92379e-07
DICPCG:  Solving for p, Initial residual = 0.0024569, Final residual = 9.0971e-07, No Iterations 103
time step continuity errors : sum local = 1.12806e-11, global = -5.25793e-14, cumulative = 2.92379e-07
ExecutionTime = 9.57 s  ClockTime = 11 s

Time = 0.84

Courant Number mean: 0.0582947 max: 0.494939
smoothSolver:  Solving for Ux, Initial residual = 0.000473911, Final residual = 3.01014e-06, No Iterations 3
smoothSolver:  Solving for Uy, Initial residual = 0.00237124, Final residual = 9.96207e-06, No Iterations 3
DICPCG:  Solving for p, Initial residual = 0.00439048, Final residual = 0.000177447, No Iterations 37
time step continuity errors : sum local = 2.20345e-09, global = 3.39132e-11, cumulative = 2.92413e-07
DICPCG:  Solving for p, Initial residual = 0.00261084, Final residual = 9.58353e-07, No Iterations 119
time step continuity errors : sum local = 1.1892e-11, global = 7.57514e-14, cumulative = 2.92413e-07
ExecutionTime = 9.67 s  ClockTime = 11 s

Time = 0.85

Courant Number mean: 0.0582958 max: 0.494469
smoothSolver:  Solving for Ux, Initial residual = 0.000470165, Final residual = 9.82013e-06, No Iterations 2
smoothSolver:  Solving for Uy, Initial residual = 0.00235004, Final residual = 9.80963e-06, No Iterations 3
DICPCG:  Solving for p, Initial residual = 0.00538994, Final residual = 0.000263667, No Iterations 70
time step continuity errors : sum local = 3.28271e-09, global = 2.1119e-11, cumulative = 2.92434e-07
DICPCG:  Solving for p, Initial residual = 0.00481327, Final residual = 8.88816e-07, No Iterations 121
time step continuity errors : sum local = 1.12296e-11, global = -2.92631e-13, cumulative = 2.92434e-07
ExecutionTime = 9.78 s  ClockTime = 11 s

Time = 0.86

Courant Number mean: 0.0582969 max: 0.494059
smoothSolver:  Solving for Ux, Initial residual = 0.000465358, Final residual = 9.73872e-06, No Iterations 2
smoothSolver:  Solving for Uy, Initial residual = 0.0023237, Final residual = 9.71987e-06, No Iterations 3
DICPCG:  Solving for p, Initial residual = 0.0056231, Final residual = 0.00026826, No Iterations 67
time step continuity errors : sum local = 3.35153e-09, global = 2.16116e-10, cumulative = 2.9265e-07
DICPCG:  Solving for p, Initial residual = 0.00436357, Final residual = 9.57201e-07, No Iterations 125
time step continuity errors : sum local = 1.20855e-11, global = -1.67821e-13, cumulative = 2.9265e-07
ExecutionTime = 9.89 s  ClockTime = 11 s

Time = 0.87

Courant Number mean: 0.0582981 max: 0.493677
smoothSolver:  Solving for Ux, Initial residual = 0.000462179, Final residual = 9.56111e-06, No Iterations 2
smoothSolver:  Solving for Uy, Initial residual = 0.00230923, Final residual = 9.55855e-06, No Iterations 3
DICPCG:  Solving for p, Initial residual = 0.00540343, Final residual = 0.000240898, No Iterations 75
time step continuity errors : sum local = 3.01168e-09, global = 6.54684e-12, cumulative = 2.92656e-07
DICPCG:  Solving for p, Initial residual = 0.00428511, Final residual = 9.55489e-07, No Iterations 125
time step continuity errors : sum local = 1.20837e-11, global = -1.66339e-13, cumulative = 2.92656e-07
ExecutionTime = 10 s  ClockTime = 11 s

Time = 0.88

Courant Number mean: 0.0582992 max: 0.493296
smoothSolver:  Solving for Ux, Initial residual = 0.000458794, Final residual = 9.3975e-06, No Iterations 2
smoothSolver:  Solving for Uy, Initial residual = 0.00229435, Final residual = 9.41337e-06, No Iterations 3
DICPCG:  Solving for p, Initial residual = 0.00531358, Final residual = 0.000261699, No Iterations 68
time step continuity errors : sum local = 3.27529e-09, global = 2.06269e-10, cumulative = 2.92862e-07
DICPCG:  Solving for p, Initial residual = 0.00420502, Final residual = 9.31977e-07, No Iterations 125
time step continuity errors : sum local = 1.17952e-11, global = -1.35734e-13, cumulative = 2.92862e-07
ExecutionTime = 10.12 s  ClockTime = 11 s

Time = 0.89

Courant Number mean: 0.0583003 max: 0.492959
smoothSolver:  Solving for Ux, Initial residual = 0.000455578, Final residual = 9.23804e-06, No Iterations 2
smoothSolver:  Solving for Uy, Initial residual = 0.00228069, Final residual = 9.25963e-06, No Iterations 3
DICPCG:  Solving for p, Initial residual = 0.00522347, Final residual = 0.000232445, No Iterations 75
time step continuity errors : sum local = 2.91242e-09, global = 4.65851e-12, cumulative = 2.92867e-07
DICPCG:  Solving for p, Initial residual = 0.0041234, Final residual = 9.13296e-07, No Iterations 125
time step continuity errors : sum local = 1.15712e-11, global = -1.5302e-13, cumulative = 2.92867e-07
ExecutionTime = 10.24 s  ClockTime = 11 s

Time = 0.9

Courant Number mean: 0.0583015 max: 0.492638
smoothSolver:  Solving for Ux, Initial residual = 0.000452326, Final residual = 9.0806e-06, No Iterations 2
smoothSolver:  Solving for Uy, Initial residual = 0.00226733, Final residual = 9.11938e-06, No Iterations 3
DICPCG:  Solving for p, Initial residual = 0.00512882, Final residual = 0.00025279, No Iterations 68
time step continuity errors : sum local = 3.17074e-09, global = 1.97957e-10, cumulative = 2.93065e-07
DICPCG:  Solving for p, Initial residual = 0.00405375, Final residual = 8.90921e-07, No Iterations 125
time step continuity errors : sum local = 1.12959e-11, global = -1.32036e-13, cumulative = 2.93065e-07
ExecutionTime = 10.34 s  ClockTime = 11 s

Time = 0.91

Courant Number mean: 0.0583027 max: 0.49232
smoothSolver:  Solving for Ux, Initial residual = 0.000449265, Final residual = 8.92883e-06, No Iterations 2
smoothSolver:  Solving for Uy, Initial residual = 0.00225412, Final residual = 8.97236e-06, No Iterations 3
DICPCG:  Solving for p, Initial residual = 0.00504363, Final residual = 0.000224127, No Iterations 75
time step continuity errors : sum local = 2.81431e-09, global = 3.79749e-12, cumulative = 2.93068e-07
DICPCG:  Solving for p, Initial residual = 0.0039794, Final residual = 8.91721e-07, No Iterations 125
time step continuity errors : sum local = 1.13179e-11, global = -1.51149e-13, cumulative = 2.93068e-07
ExecutionTime = 10.46 s  ClockTime = 12 s

Time = 0.92

Courant Number mean: 0.0583038 max: 0.492004
smoothSolver:  Solving for Ux, Initial residual = 0.000446154, Final residual = 8.77883e-06, No Iterations 2
smoothSolver:  Solving for Uy, Initial residual = 0.00224117, Final residual = 8.8382e-06, No Iterations 3
DICPCG:  Solving for p, Initial residual = 0.0049519, Final residual = 0.00024244, No Iterations 68
time step continuity errors : sum local = 3.04737e-09, global = 1.89702e-10, cumulative = 2.93258e-07
DICPCG:  Solving for p, Initial residual = 0.00391355, Final residual = 9.64105e-07, No Iterations 124
time step continuity errors : sum local = 1.22452e-11, global = -2.37842e-13, cumulative = 2.93258e-07
ExecutionTime = 10.57 s  ClockTime = 12 s

Time = 0.93

Courant Number mean: 0.058305 max: 0.491689
smoothSolver:  Solving for Ux, Initial residual = 0.000443468, Final residual = 8.63425e-06, No Iterations 2
smoothSolver:  Solving for Uy, Initial residual = 0.00222808, Final residual = 8.69739e-06, No Iterations 3
DICPCG:  Solving for p, Initial residual = 0.00486946, Final residual = 0.000213777, No Iterations 75
time step continuity errors : sum local = 2.68992e-09, global = 3.13167e-12, cumulative = 2.93261e-07
DICPCG:  Solving for p, Initial residual = 0.00383971, Final residual = 8.56675e-07, No Iterations 125
time step continuity errors : sum local = 1.08918e-11, global = -1.46994e-13, cumulative = 2.93261e-07
ExecutionTime = 10.69 s  ClockTime = 12 s

Time = 0.94

Courant Number mean: 0.0583062 max: 0.491377
smoothSolver:  Solving for Ux, Initial residual = 0.000440756, Final residual = 8.49134e-06, No Iterations 2
smoothSolver:  Solving for Uy, Initial residual = 0.00221545, Final residual = 8.56894e-06, No Iterations 3
DICPCG:  Solving for p, Initial residual = 0.00478092, Final residual = 0.000235578, No Iterations 67
time step continuity errors : sum local = 2.96724e-09, global = 1.94816e-10, cumulative = 2.93456e-07
DICPCG:  Solving for p, Initial residual = 0.00378059, Final residual = 9.86751e-07, No Iterations 124
time step continuity errors : sum local = 1.25541e-11, global = -2.57054e-13, cumulative = 2.93455e-07
ExecutionTime = 10.8 s  ClockTime = 12 s

Time = 0.95

Courant Number mean: 0.0583074 max: 0.491067
smoothSolver:  Solving for Ux, Initial residual = 0.000438194, Final residual = 8.35355e-06, No Iterations 2
smoothSolver:  Solving for Uy, Initial residual = 0.00220287, Final residual = 8.43325e-06, No Iterations 3
DICPCG:  Solving for p, Initial residual = 0.00470958, Final residual = 0.00023186, No Iterations 74
time step continuity errors : sum local = 2.92349e-09, global = 1.3721e-11, cumulative = 2.93469e-07
DICPCG:  Solving for p, Initial residual = 0.00372666, Final residual = 9.58457e-07, No Iterations 124
time step continuity errors : sum local = 1.22064e-11, global = -2.65971e-13, cumulative = 2.93469e-07
ExecutionTime = 10.91 s  ClockTime = 12 s

Time = 0.96

Courant Number mean: 0.0583085 max: 0.490759
smoothSolver:  Solving for Ux, Initial residual = 0.000435583, Final residual = 8.21737e-06, No Iterations 2
smoothSolver:  Solving for Uy, Initial residual = 0.00219059, Final residual = 8.31101e-06, No Iterations 3
DICPCG:  Solving for p, Initial residual = 0.00462225, Final residual = 0.000230512, No Iterations 67
time step continuity errors : sum local = 2.90937e-09, global = 1.90758e-10, cumulative = 2.93659e-07
DICPCG:  Solving for p, Initial residual = 0.00364941, Final residual = 9.48904e-07, No Iterations 124
time step continuity errors : sum local = 1.20932e-11, global = -2.52024e-13, cumulative = 2.93659e-07
ExecutionTime = 11.03 s  ClockTime = 12 s

Time = 0.97

Courant Number mean: 0.0583097 max: 0.490453
smoothSolver:  Solving for Ux, Initial residual = 0.000433094, Final residual = 8.08605e-06, No Iterations 2
smoothSolver:  Solving for Uy, Initial residual = 0.00217821, Final residual = 8.18104e-06, No Iterations 3
DICPCG:  Solving for p, Initial residual = 0.00455033, Final residual = 0.00022626, No Iterations 74
time step continuity errors : sum local = 2.85858e-09, global = 1.26916e-11, cumulative = 2.93672e-07
DICPCG:  Solving for p, Initial residual = 0.00359628, Final residual = 9.58045e-07, No Iterations 124
time step continuity errors : sum local = 1.22212e-11, global = -2.77307e-13, cumulative = 2.93672e-07
ExecutionTime = 11.14 s  ClockTime = 12 s

Time = 0.98

Courant Number mean: 0.0583109 max: 0.49015
smoothSolver:  Solving for Ux, Initial residual = 0.000430573, Final residual = 7.95618e-06, No Iterations 2
smoothSolver:  Solving for Uy, Initial residual = 0.00216635, Final residual = 8.0638e-06, No Iterations 3
DICPCG:  Solving for p, Initial residual = 0.00446904, Final residual = 0.00021834, No Iterations 67
time step continuity errors : sum local = 2.76106e-09, global = 1.83541e-10, cumulative = 2.93855e-07
DICPCG:  Solving for p, Initial residual = 0.00352336, Final residual = 9.14329e-07, No Iterations 124
time step continuity errors : sum local = 1.1671e-11, global = -2.4386e-13, cumulative = 2.93855e-07
ExecutionTime = 11.26 s  ClockTime = 12 s

Time = 0.99

[...]
time step continuity errors : sum local = 1.08849e-11, global = 5.83333e-14, cumulative = 3.07007e-07
ExecutionTime = 250.53 s  ClockTime = 273 s

Time = 24.74

Courant Number mean: 0.0581825 max: 0.488752
smoothSolver:  Solving for Ux, Initial residual = 4.81844e-06, Final residual = 4.81844e-06, No Iterations 0
smoothSolver:  Solving for Uy, Initial residual = 1.99537e-05, Final residual = 1.2475e-07, No Iterations 1
DICPCG:  Solving for p, Initial residual = 0.000129188, Final residual = 5.82321e-06, No Iterations 74
time step continuity errors : sum local = 6.57276e-11, global = -1.95801e-13, cumulative = 3.07007e-07
DICPCG:  Solving for p, Initial residual = 0.000130719, Final residual = 9.55316e-07, No Iterations 90
time step continuity errors : sum local = 1.07959e-11, global = 5.78361e-14, cumulative = 3.07007e-07
ExecutionTime = 250.63 s  ClockTime = 273 s

Time = 24.75

Courant Number mean: 0.0581825 max: 0.488752
smoothSolver:  Solving for Ux, Initial residual = 4.80554e-06, Final residual = 4.80554e-06, No Iterations 0
smoothSolver:  Solving for Uy, Initial residual = 1.9901e-05, Final residual = 1.2445e-07, No Iterations 1
DICPCG:  Solving for p, Initial residual = 0.000128858, Final residual = 5.7474e-06, No Iterations 74
time step continuity errors : sum local = 6.48709e-11, global = -1.87692e-13, cumulative = 3.07007e-07
DICPCG:  Solving for p, Initial residual = 0.000130228, Final residual = 9.56978e-07, No Iterations 90
time step continuity errors : sum local = 1.08145e-11, global = 5.69522e-14, cumulative = 3.07007e-07
ExecutionTime = 250.72 s  ClockTime = 273 s

Time = 24.76

Courant Number mean: 0.0581824 max: 0.488752
smoothSolver:  Solving for Ux, Initial residual = 4.79269e-06, Final residual = 4.79269e-06, No Iterations 0
smoothSolver:  Solving for Uy, Initial residual = 1.98483e-05, Final residual = 1.24149e-07, No Iterations 1
DICPCG:  Solving for p, Initial residual = 0.000128526, Final residual = 5.80201e-06, No Iterations 74
time step continuity errors : sum local = 6.54862e-11, global = -1.96121e-13, cumulative = 3.07007e-07
DICPCG:  Solving for p, Initial residual = 0.000130101, Final residual = 9.54622e-07, No Iterations 90
time step continuity errors : sum local = 1.07876e-11, global = 5.83141e-14, cumulative = 3.07007e-07
ExecutionTime = 250.83 s  ClockTime = 273 s

Time = 24.77

Courant Number mean: 0.0581823 max: 0.488752
smoothSolver:  Solving for Ux, Initial residual = 4.77987e-06, Final residual = 4.77987e-06, No Iterations 0
smoothSolver:  Solving for Uy, Initial residual = 1.97958e-05, Final residual = 1.23846e-07, No Iterations 1
DICPCG:  Solving for p, Initial residual = 0.000128203, Final residual = 5.73754e-06, No Iterations 74
time step continuity errors : sum local = 6.47575e-11, global = -1.9602e-13, cumulative = 3.07007e-07
DICPCG:  Solving for p, Initial residual = 0.000129696, Final residual = 9.55327e-07, No Iterations 90
time step continuity errors : sum local = 1.07954e-11, global = 5.66914e-14, cumulative = 3.07007e-07
ExecutionTime = 250.93 s  ClockTime = 274 s

Time = 24.78

Courant Number mean: 0.0581822 max: 0.488752
smoothSolver:  Solving for Ux, Initial residual = 4.76708e-06, Final residual = 4.76708e-06, No Iterations 0
smoothSolver:  Solving for Uy, Initial residual = 1.97434e-05, Final residual = 1.23546e-07, No Iterations 1
DICPCG:  Solving for p, Initial residual = 0.000127879, Final residual = 5.73401e-06, No Iterations 74
time step continuity errors : sum local = 6.47166e-11, global = -1.86859e-13, cumulative = 3.07007e-07
DICPCG:  Solving for p, Initial residual = 0.000129253, Final residual = 9.51705e-07, No Iterations 90
time step continuity errors : sum local = 1.07543e-11, global = 5.88839e-14, cumulative = 3.07007e-07
ExecutionTime = 251.02 s  ClockTime = 274 s

Time = 24.79

Courant Number mean: 0.0581821 max: 0.488752
smoothSolver:  Solving for Ux, Initial residual = 4.75433e-06, Final residual = 4.75433e-06, No Iterations 0
smoothSolver:  Solving for Uy, Initial residual = 1.96912e-05, Final residual = 1.23245e-07, No Iterations 1
DICPCG:  Solving for p, Initial residual = 0.000127543, Final residual = 5.76304e-06, No Iterations 74
time step continuity errors : sum local = 6.50433e-11, global = -1.95362e-13, cumulative = 3.07007e-07
DICPCG:  Solving for p, Initial residual = 0.000129129, Final residual = 9.4862e-07, No Iterations 90
time step continuity errors : sum local = 1.07192e-11, global = 5.59623e-14, cumulative = 3.07007e-07
ExecutionTime = 251.12 s  ClockTime = 274 s

Time = 24.8

Courant Number mean: 0.0581821 max: 0.488752
smoothSolver:  Solving for Ux, Initial residual = 4.74162e-06, Final residual = 4.74162e-06, No Iterations 0
smoothSolver:  Solving for Uy, Initial residual = 1.96392e-05, Final residual = 1.22944e-07, No Iterations 1
DICPCG:  Solving for p, Initial residual = 0.000127236, Final residual = 5.79177e-06, No Iterations 74
time step continuity errors : sum local = 6.53664e-11, global = -1.8642e-13, cumulative = 3.07006e-07
DICPCG:  Solving for p, Initial residual = 0.000128712, Final residual = 9.46358e-07, No Iterations 90
time step continuity errors : sum local = 1.06934e-11, global = 5.71896e-14, cumulative = 3.07007e-07
ExecutionTime = 251.22 s  ClockTime = 274 s

Time = 24.81

Courant Number mean: 0.058182 max: 0.488752
smoothSolver:  Solving for Ux, Initial residual = 4.72894e-06, Final residual = 4.72894e-06, No Iterations 0
smoothSolver:  Solving for Uy, Initial residual = 1.95872e-05, Final residual = 1.22647e-07, No Iterations 1
DICPCG:  Solving for p, Initial residual = 0.000126906, Final residual = 5.68057e-06, No Iterations 74
time step continuity errors : sum local = 6.41104e-11, global = -1.94461e-13, cumulative = 3.07006e-07
DICPCG:  Solving for p, Initial residual = 0.000128394, Final residual = 9.90657e-07, No Iterations 89
time step continuity errors : sum local = 1.11938e-11, global = 7.05458e-14, cumulative = 3.07006e-07
ExecutionTime = 251.32 s  ClockTime = 274 s

Time = 24.82

Courant Number mean: 0.0581819 max: 0.488752
smoothSolver:  Solving for Ux, Initial residual = 4.71631e-06, Final residual = 4.71631e-06, No Iterations 0
smoothSolver:  Solving for Uy, Initial residual = 1.95357e-05, Final residual = 1.22367e-07, No Iterations 1
DICPCG:  Solving for p, Initial residual = 0.000126711, Final residual = 5.72642e-06, No Iterations 74
time step continuity errors : sum local = 6.46268e-11, global = -1.83791e-13, cumulative = 3.07006e-07
DICPCG:  Solving for p, Initial residual = 0.000128059, Final residual = 9.50728e-07, No Iterations 90
time step continuity errors : sum local = 1.07424e-11, global = 5.61207e-14, cumulative = 3.07006e-07
ExecutionTime = 251.42 s  ClockTime = 274 s

Time = 24.83

Courant Number mean: 0.0581819 max: 0.488752
smoothSolver:  Solving for Ux, Initial residual = 4.70369e-06, Final residual = 4.70369e-06, No Iterations 0
smoothSolver:  Solving for Uy, Initial residual = 1.94838e-05, Final residual = 1.22049e-07, No Iterations 1
DICPCG:  Solving for p, Initial residual = 0.000126382, Final residual = 5.77825e-06, No Iterations 74
time step continuity errors : sum local = 6.52107e-11, global = -1.86498e-13, cumulative = 3.07006e-07
DICPCG:  Solving for p, Initial residual = 0.000127801, Final residual = 9.40427e-07, No Iterations 90
time step continuity errors : sum local = 1.06258e-11, global = 5.66885e-14, cumulative = 3.07006e-07
ExecutionTime = 251.51 s  ClockTime = 274 s

Time = 24.84

Courant Number mean: 0.0581818 max: 0.488752
smoothSolver:  Solving for Ux, Initial residual = 4.69112e-06, Final residual = 4.69112e-06, No Iterations 0
smoothSolver:  Solving for Uy, Initial residual = 1.94323e-05, Final residual = 1.21757e-07, No Iterations 1
DICPCG:  Solving for p, Initial residual = 0.00012597, Final residual = 5.68238e-06, No Iterations 74
time step continuity errors : sum local = 6.41278e-11, global = -1.94497e-13, cumulative = 3.07006e-07
DICPCG:  Solving for p, Initial residual = 0.000127514, Final residual = 9.43947e-07, No Iterations 90
time step continuity errors : sum local = 1.06654e-11, global = 5.65408e-14, cumulative = 3.07006e-07
ExecutionTime = 251.62 s  ClockTime = 274 s

Time = 24.85

Courant Number mean: 0.0581817 max: 0.488752
smoothSolver:  Solving for Ux, Initial residual = 4.67859e-06, Final residual = 4.67859e-06, No Iterations 0
smoothSolver:  Solving for Uy, Initial residual = 1.9381e-05, Final residual = 1.21459e-07, No Iterations 1
DICPCG:  Solving for p, Initial residual = 0.000125631, Final residual = 5.65322e-06, No Iterations 74
time step continuity errors : sum local = 6.37977e-11, global = -1.86621e-13, cumulative = 3.07006e-07
DICPCG:  Solving for p, Initial residual = 0.000127165, Final residual = 9.93676e-07, No Iterations 89
time step continuity errors : sum local = 1.12271e-11, global = 7.40257e-14, cumulative = 3.07006e-07
ExecutionTime = 251.71 s  ClockTime = 274 s

Time = 24.86

Courant Number mean: 0.0581816 max: 0.488752
smoothSolver:  Solving for Ux, Initial residual = 4.66609e-06, Final residual = 4.66609e-06, No Iterations 0
smoothSolver:  Solving for Uy, Initial residual = 1.933e-05, Final residual = 1.21185e-07, No Iterations 1
DICPCG:  Solving for p, Initial residual = 0.00012541, Final residual = 5.68605e-06, No Iterations 74
time step continuity errors : sum local = 6.41672e-11, global = -1.73766e-13, cumulative = 3.07006e-07
DICPCG:  Solving for p, Initial residual = 0.000126644, Final residual = 9.85712e-07, No Iterations 89
time step continuity errors : sum local = 1.11369e-11, global = 7.33643e-14, cumulative = 3.07006e-07
ExecutionTime = 251.82 s  ClockTime = 274 s

Time = 24.87

Courant Number mean: 0.0581816 max: 0.488752
smoothSolver:  Solving for Ux, Initial residual = 4.65362e-06, Final residual = 4.65362e-06, No Iterations 0
smoothSolver:  Solving for Uy, Initial residual = 1.92788e-05, Final residual = 1.20874e-07, No Iterations 1
DICPCG:  Solving for p, Initial residual = 0.000125047, Final residual = 5.5763e-06, No Iterations 74
time step continuity errors : sum local = 6.29277e-11, global = -1.79586e-13, cumulative = 3.07006e-07
DICPCG:  Solving for p, Initial residual = 0.000126464, Final residual = 9.82819e-07, No Iterations 89
time step continuity errors : sum local = 1.1104e-11, global = 7.65572e-14, cumulative = 3.07006e-07
ExecutionTime = 251.91 s  ClockTime = 275 s

Time = 24.88

Courant Number mean: 0.0581815 max: 0.488752
smoothSolver:  Solving for Ux, Initial residual = 4.64119e-06, Final residual = 4.64119e-06, No Iterations 0
smoothSolver:  Solving for Uy, Initial residual = 1.9228e-05, Final residual = 1.20588e-07, No Iterations 1
DICPCG:  Solving for p, Initial residual = 0.000124728, Final residual = 5.61339e-06, No Iterations 74
time step continuity errors : sum local = 6.33452e-11, global = -1.92085e-13, cumulative = 3.07005e-07
DICPCG:  Solving for p, Initial residual = 0.000126257, Final residual = 9.84903e-07, No Iterations 89
time step continuity errors : sum local = 1.11273e-11, global = 7.26513e-14, cumulative = 3.07006e-07
ExecutionTime = 252 s  ClockTime = 275 s

Time = 24.89

Courant Number mean: 0.0581814 max: 0.488752
smoothSolver:  Solving for Ux, Initial residual = 4.62879e-06, Final residual = 4.62879e-06, No Iterations 0
smoothSolver:  Solving for Uy, Initial residual = 1.91772e-05, Final residual = 1.20298e-07, No Iterations 1
DICPCG:  Solving for p, Initial residual = 0.000124428, Final residual = 5.53851e-06, No Iterations 74
time step continuity errors : sum local = 6.24992e-11, global = -1.56049e-13, cumulative = 3.07005e-07
DICPCG:  Solving for p, Initial residual = 0.000125722, Final residual = 9.72615e-07, No Iterations 89
time step continuity errors : sum local = 1.09883e-11, global = 6.71901e-14, cumulative = 3.07005e-07
ExecutionTime = 252.11 s  ClockTime = 275 s

Time = 24.9

Courant Number mean: 0.0581813 max: 0.488752
smoothSolver:  Solving for Ux, Initial residual = 4.61642e-06, Final residual = 4.61642e-06, No Iterations 0
smoothSolver:  Solving for Uy, Initial residual = 1.91265e-05, Final residual = 1.20001e-07, No Iterations 1
DICPCG:  Solving for p, Initial residual = 0.000124128, Final residual = 5.57894e-06, No Iterations 74
time step continuity errors : sum local = 6.29545e-11, global = -1.92282e-13, cumulative = 3.07005e-07
DICPCG:  Solving for p, Initial residual = 0.000125622, Final residual = 9.8985e-07, No Iterations 89
time step continuity errors : sum local = 1.11828e-11, global = 7.4617e-14, cumulative = 3.07005e-07
ExecutionTime = 252.21 s  ClockTime = 275 s

Time = 24.91

Courant Number mean: 0.0581813 max: 0.488752
smoothSolver:  Solving for Ux, Initial residual = 4.60409e-06, Final residual = 4.60409e-06, No Iterations 0
smoothSolver:  Solving for Uy, Initial residual = 1.90761e-05, Final residual = 1.19713e-07, No Iterations 1
DICPCG:  Solving for p, Initial residual = 0.000123789, Final residual = 5.61602e-06, No Iterations 74
time step continuity errors : sum local = 6.33719e-11, global = -1.79586e-13, cumulative = 3.07005e-07
DICPCG:  Solving for p, Initial residual = 0.000125323, Final residual = 9.8947e-07, No Iterations 89
time step continuity errors : sum local = 1.11783e-11, global = 7.44188e-14, cumulative = 3.07005e-07
ExecutionTime = 252.3 s  ClockTime = 275 s

Time = 24.92

Courant Number mean: 0.0581812 max: 0.488752
smoothSolver:  Solving for Ux, Initial residual = 4.5918e-06, Final residual = 4.5918e-06, No Iterations 0
smoothSolver:  Solving for Uy, Initial residual = 1.90257e-05, Final residual = 1.19423e-07, No Iterations 1
DICPCG:  Solving for p, Initial residual = 0.000123473, Final residual = 5.50271e-06, No Iterations 74
time step continuity errors : sum local = 6.20924e-11, global = -1.67284e-13, cumulative = 3.07005e-07
DICPCG:  Solving for p, Initial residual = 0.000124841, Final residual = 9.77471e-07, No Iterations 89
time step continuity errors : sum local = 1.10425e-11, global = 7.25085e-14, cumulative = 3.07005e-07
ExecutionTime = 252.4 s  ClockTime = 275 s

Time = 24.93

Courant Number mean: 0.0581811 max: 0.488752
smoothSolver:  Solving for Ux, Initial residual = 4.57954e-06, Final residual = 4.57954e-06, No Iterations 0
smoothSolver:  Solving for Uy, Initial residual = 1.89755e-05, Final residual = 1.19132e-07, No Iterations 1
DICPCG:  Solving for p, Initial residual = 0.000123149, Final residual = 5.57607e-06, No Iterations 74
time step continuity errors : sum local = 6.29192e-11, global = -1.90252e-13, cumulative = 3.07005e-07
DICPCG:  Solving for p, Initial residual = 0.000124712, Final residual = 9.43955e-07, No Iterations 89
time step continuity errors : sum local = 1.06637e-11, global = 6.58539e-14, cumulative = 3.07005e-07
ExecutionTime = 252.5 s  ClockTime = 275 s

Time = 24.94

Courant Number mean: 0.058181 max: 0.488752
smoothSolver:  Solving for Ux, Initial residual = 4.56731e-06, Final residual = 4.56731e-06, No Iterations 0
smoothSolver:  Solving for Uy, Initial residual = 1.89254e-05, Final residual = 1.1884e-07, No Iterations 1
DICPCG:  Solving for p, Initial residual = 0.000122858, Final residual = 5.60058e-06, No Iterations 74
time step continuity errors : sum local = 6.31948e-11, global = -1.74687e-13, cumulative = 3.07005e-07
DICPCG:  Solving for p, Initial residual = 0.000124307, Final residual = 9.75678e-07, No Iterations 89
time step continuity errors : sum local = 1.10219e-11, global = 7.30282e-14, cumulative = 3.07005e-07
ExecutionTime = 252.6 s  ClockTime = 275 s

Time = 24.95

Courant Number mean: 0.058181 max: 0.488752
smoothSolver:  Solving for Ux, Initial residual = 4.55512e-06, Final residual = 4.55512e-06, No Iterations 0
smoothSolver:  Solving for Uy, Initial residual = 1.88755e-05, Final residual = 1.18558e-07, No Iterations 1
DICPCG:  Solving for p, Initial residual = 0.000122554, Final residual = 5.47428e-06, No Iterations 74
time step continuity errors : sum local = 6.17687e-11, global = -1.69058e-13, cumulative = 3.07005e-07
DICPCG:  Solving for p, Initial residual = 0.000123943, Final residual = 9.73332e-07, No Iterations 89
time step continuity errors : sum local = 1.09952e-11, global = 7.31984e-14, cumulative = 3.07005e-07
ExecutionTime = 252.69 s  ClockTime = 275 s

Time = 24.96

Courant Number mean: 0.0581809 max: 0.488752
smoothSolver:  Solving for Ux, Initial residual = 4.54296e-06, Final residual = 4.54296e-06, No Iterations 0
smoothSolver:  Solving for Uy, Initial residual = 1.88257e-05, Final residual = 1.18272e-07, No Iterations 1
DICPCG:  Solving for p, Initial residual = 0.000122241, Final residual = 5.44023e-06, No Iterations 74
time step continuity errors : sum local = 6.13835e-11, global = -1.73044e-13, cumulative = 3.07005e-07
DICPCG:  Solving for p, Initial residual = 0.000123637, Final residual = 9.73796e-07, No Iterations 89
time step continuity errors : sum local = 1.10002e-11, global = 7.36733e-14, cumulative = 3.07005e-07
ExecutionTime = 252.8 s  ClockTime = 275 s

Time = 24.97

Courant Number mean: 0.0581808 max: 0.488752
smoothSolver:  Solving for Ux, Initial residual = 4.53083e-06, Final residual = 4.53083e-06, No Iterations 0
smoothSolver:  Solving for Uy, Initial residual = 1.8776e-05, Final residual = 1.17982e-07, No Iterations 1
DICPCG:  Solving for p, Initial residual = 0.000121944, Final residual = 5.45052e-06, No Iterations 74
time step continuity errors : sum local = 6.14987e-11, global = -1.67728e-13, cumulative = 3.07005e-07
DICPCG:  Solving for p, Initial residual = 0.000123383, Final residual = 9.66052e-07, No Iterations 89
time step continuity errors : sum local = 1.09126e-11, global = 6.83746e-14, cumulative = 3.07005e-07
ExecutionTime = 252.89 s  ClockTime = 276 s

Time = 24.98

Courant Number mean: 0.0581808 max: 0.488752
smoothSolver:  Solving for Ux, Initial residual = 4.51874e-06, Final residual = 4.51874e-06, No Iterations 0
smoothSolver:  Solving for Uy, Initial residual = 1.87265e-05, Final residual = 1.17699e-07, No Iterations 1
DICPCG:  Solving for p, Initial residual = 0.000121669, Final residual = 5.43111e-06, No Iterations 74
time step continuity errors : sum local = 6.12789e-11, global = -1.69348e-13, cumulative = 3.07004e-07
DICPCG:  Solving for p, Initial residual = 0.00012305, Final residual = 9.66334e-07, No Iterations 89
time step continuity errors : sum local = 1.09155e-11, global = 6.89995e-14, cumulative = 3.07005e-07
ExecutionTime = 252.99 s  ClockTime = 276 s

Time = 24.99

Courant Number mean: 0.0581807 max: 0.488752
smoothSolver:  Solving for Ux, Initial residual = 4.50668e-06, Final residual = 4.50668e-06, No Iterations 0
smoothSolver:  Solving for Uy, Initial residual = 1.86771e-05, Final residual = 1.17411e-07, No Iterations 1
DICPCG:  Solving for p, Initial residual = 0.000121323, Final residual = 5.40402e-06, No Iterations 74
time step continuity errors : sum local = 6.09722e-11, global = -1.76162e-13, cumulative = 3.07004e-07
DICPCG:  Solving for p, Initial residual = 0.000122645, Final residual = 9.64061e-07, No Iterations 89
time step continuity errors : sum local = 1.08897e-11, global = 6.88654e-14, cumulative = 3.07004e-07
ExecutionTime = 253.08 s  ClockTime = 276 s

Time = 25

Courant Number mean: 0.0581806 max: 0.488752
smoothSolver:  Solving for Ux, Initial residual = 4.49466e-06, Final residual = 4.49466e-06, No Iterations 0
smoothSolver:  Solving for Uy, Initial residual = 1.86278e-05, Final residual = 1.17124e-07, No Iterations 1
DICPCG:  Solving for p, Initial residual = 0.000121039, Final residual = 5.45137e-06, No Iterations 74
time step continuity errors : sum local = 6.15056e-11, global = -1.70903e-13, cumulative = 3.07004e-07
DICPCG:  Solving for p, Initial residual = 0.000122461, Final residual = 9.62431e-07, No Iterations 89
time step continuity errors : sum local = 1.08711e-11, global = 7.12857e-14, cumulative = 3.07004e-07
ExecutionTime = 253.38 s  ClockTime = 276 s

End

